download/pglib-opf-master/api/pglib_opf_case2848_rte__api.m
%%%%%%%%%%%%%%%%%%%%%%%%%%%%%%%%%%%%%%%%%%%%%%%%%%%%%%%%%%%%%%%%%%%%%%%%%%%
%%%%                                                                  %%%%%
%%%%    IEEE PES Power Grid Library - Optimal Power Flow - v19.05     %%%%%
%%%%          (https://github.com/power-grid-lib/pglib-opf)           %%%%%
%%%%             Benchmark Group - Active Power Increase              %%%%%
%%%%                         08 - May - 2019                          %%%%%
%%%%                                                                  %%%%%
%%%%%%%%%%%%%%%%%%%%%%%%%%%%%%%%%%%%%%%%%%%%%%%%%%%%%%%%%%%%%%%%%%%%%%%%%%%
function mpc = pglib_opf_case2848_rte__api
mpc.version = '2';
mpc.baseMVA = 100.0;

%% bus data
%	bus_i	type	Pd	Qd	Gs	Bs	area	Vm	Va	baseKV	zone	Vmax	Vmin
mpc.bus = [
	1	 1	 20.60	 0.00	 0.0	 0.0	 1	    1.00000	    0.00000	 63.0	 1	    1.06349	    0.93651;
	2	 1	 28.39	 17.20	 0.0	 0.0	 1	    0.98889	    0.00000	 225.0	 1	    1.08889	    0.88889;
	3	 1	 0.0	 0.0	 0.0	 0.0	 1	    1.05131	    0.00000	 380.0	 1	    1.10263	    1.00000;
	4	 1	 0.0	 0.0	 0.0	 0.0	 1	    1.00000	    0.00000	 63.0	 1	    1.07937	    0.92063;
	5	 1	 0.54	 0.10	 0.0	 0.0	 1	    0.94444	    0.00000	 45.0	 1	    1.00000	    0.88889;
	6	 1	 -2.30	 -20.60	 0.0	 0.0	 1	    0.94444	    0.00000	 45.0	 1	    1.00000	    0.88889;
	7	 1	 110.50	 -25.50	 0.0	 0.0	 1	    1.04222	    0.00000	 225.0	 1	    1.08444	    1.00000;
	8	 1	 60.72	 1.50	 0.0	 0.0	 1	    1.01587	    0.00000	 63.0	 1	    1.06349	    0.96825;
	9	 1	 0.0	 0.0	 0.0	 -21.0	 1	    1.00000	    0.00000	 20.0	 1	    1.20000	    0.80000;
	2966	 1	 0.0	 0.0	 0.0	 -64.0	 1	    1.00000	    0.00000	 20.0	 1	    1.20000	    0.80000;
	10	 1	 0.0	 0.0	 0.0	 0.0	 1	    1.00334	    0.00000	 150.0	 1	    1.10667	    0.90000;
	11	 1	 31.70	 -8.70	 0.0	 0.0	 1	    1.01111	    0.00000	 225.0	 1	    1.08889	    0.93333;
	2571	 1	 59.37	 9.90	 0.0	 0.0	 1	    1.01111	    0.00000	 225.0	 1	    1.08889	    0.93333;
	12	 1	 0.0	 0.0	 0.0	 0.0	 1	    1.05263	    0.00000	 380.0	 1	    1.10526	    1.00000;
	13	 1	 0.0	 0.0	 0.0	 0.0	 1	    1.04534	    0.00000	 225.0	 1	    1.09067	    1.00000;
	14	 1	 -4.10	 3.70	 0.0	 0.0	 1	    1.00000	    0.00000	 63.0	 1	    1.06349	    0.93651;
	15	 1	 9.00	 -3.30	 0.0	 0.0	 1	    1.00000	    0.00000	 63.0	 1	    1.06349	    0.93651;
	16	 1	 163.02	 6.30	 0.0	 0.0	 1	    1.01111	    0.00000	 225.0	 1	    1.08889	    0.93333;
	17	 1	 47.55	 6.90	 0.0	 0.0	 1	    1.04445	    0.00000	 225.0	 1	    1.08889	    1.00000;
	18	 1	 61.13	 13.40	 0.0	 0.0	 1	    1.04481	    0.00000	 225.0	 1	    1.08962	    1.00000;
	19	 2	 0.0	 0.0	 0.0	 0.0	 1	    1.00362	    0.00000	 63.0	 1	    1.08661	    0.92063;
	20	 1	 105.01	 29.10	 0.0	 0.0	 1	    1.04445	    0.00000	 225.0	 1	    1.08889	    1.00000;
	21	 1	 65.75	 4.00	 0.0	 0.0	 1	    0.98889	    0.00000	 225.0	 1	    1.08889	    0.88889;
	22	 1	 4.60	 -11.40	 0.0	 0.0	 1	    1.00450	    0.00000	 63.0	 1	    1.07249	    0.93651;
	23	 1	 33.30	 -5.70	 0.0	 0.0	 1	    1.00000	    0.00000	 63.0	 1	    1.06349	    0.93651;
	24	 1	 0.0	 0.0	 0.0	 0.0	 1	    1.04445	    0.00000	 225.0	 1	    1.08889	    1.00000;
	2573	 1	 0.0	 0.0	 0.0	 0.0	 1	    1.04445	    0.00000	 225.0	 1	    1.08889	    1.00000;
	25	 1	 24.45	 5.60	 0.0	 0.0	 1	    0.98889	    0.00000	 225.0	 1	    1.08889	    0.88889;
	26	 1	 1.00	 -8.00	 0.0	 0.0	 1	    1.04158	    0.00000	 225.0	 1	    1.09649	    0.98667;
	27	 1	 22.00	 -5.60	 0.0	 0.0	 1	    1.00000	    0.00000	 63.0	 1	    1.06349	    0.93651;
	28	 1	 -2.10	 -0.10	 0.0	 0.0	 1	    1.04445	    0.00000	 225.0	 1	    1.08889	    1.00000;
	2574	 1	 53.12	 10.00	 0.0	 0.0	 1	    1.04445	    0.00000	 225.0	 1	    1.08889	    1.00000;
	29	 1	 7.10	 -2.60	 0.0	 0.0	 1	    1.00000	    0.00000	 63.0	 1	    1.06349	    0.93651;
	30	 1	 3.50	 -40.00	 0.0	 0.0	 1	    1.04445	    0.00000	 225.0	 1	    1.08889	    1.00000;
	31	 1	 7.70	 -1.80	 0.0	 0.0	 1	    1.00431	    0.00000	 63.0	 1	    1.07211	    0.93651;
	32	 1	 16.44	 2.10	 0.0	 0.0	 1	    1.00000	    0.00000	 63.0	 1	    1.06349	    0.93651;
	33	 1	 2.40	 -0.40	 0.0	 0.0	 1	    0.94444	    0.00000	 45.0	 1	    1.00000	    0.88889;
	34	 1	 -0.0	 0.0	 0.0	 0.0	 1	    0.94444	    0.00000	 45.0	 1	    1.00000	    0.88889;
	35	 1	 35.32	 0.10	 0.0	 0.0	 1	    1.01587	    0.00000	 63.0	 1	    1.06349	    0.96825;
	36	 1	 0.70	 -4.10	 0.0	 0.0	 1	    0.94444	    0.00000	 45.0	 1	    1.00000	    0.88889;
	37	 1	 9.30	 -5.30	 0.0	 0.0	 1	    1.00000	    0.00000	 63.0	 1	    1.06349	    0.93651;
	39	 1	 78.40	 -4.80	 0.0	 0.0	 1	    1.03800	    0.00000	 225.0	 1	    1.08934	    0.98667;
	40	 1	 25.10	 -3.30	 0.0	 0.0	 1	    0.98889	    0.00000	 225.0	 1	    1.08889	    0.88889;
	41	 1	 109.22	 7.40	 0.0	 0.0	 1	    1.04222	    0.00000	 225.0	 1	    1.08444	    1.00000;
	42	 1	 51.35	 2.90	 0.0	 0.0	 1	    1.00010	    0.00000	 63.0	 1	    1.06370	    0.93651;
	43	 1	 0.0	 0.0	 0.0	 0.0	 1	    1.01111	    0.00000	 225.0	 1	    1.08889	    0.93333;
	44	 1	 29.00	 -10.00	 0.0	 0.0	 1	    1.01587	    0.00000	 63.0	 1	    1.06349	    0.96825;
	45	 1	 97.40	 -3.00	 0.0	 0.0	 1	    1.04445	    0.00000	 225.0	 1	    1.08889	    1.00000;
	46	 1	 0.0	 0.0	 0.0	 0.0	 1	    1.05263	    0.00000	 380.0	 1	    1.10526	    1.00000;
	2575	 1	 0.0	 0.0	 0.0	 0.0	 1	    1.05263	    0.00000	 380.0	 1	    1.10526	    1.00000;
	47	 1	 21.30	 -2.60	 0.0	 0.0	 1	    1.00128	    0.00000	 63.0	 1	    1.06606	    0.93651;
	48	 1	 -0.30	 0.80	 0.0	 0.0	 1	    1.00193	    0.00000	 63.0	 1	    1.06735	    0.93651;
	49	 1	 15.76	 3.20	 0.0	 0.0	 1	    1.01587	    0.00000	 63.0	 1	    1.06349	    0.96825;
	2576	 1	 12.63	 4.70	 0.0	 0.0	 1	    1.01587	    0.00000	 63.0	 1	    1.06349	    0.96825;
	50	 1	 0.0	 0.0	 0.0	 0.0	 1	    1.04222	    0.00000	 225.0	 1	    1.08444	    1.00000;
	51	 1	 66.60	 0.00	 0.0	 0.0	 1	    1.04222	    0.00000	 225.0	 1	    1.08444	    1.00000;
	52	 1	 0.0	 0.0	 0.0	 0.0	 1	    1.04445	    0.00000	 225.0	 1	    1.08889	    1.00000;
	2942	 1	 73.22	 11.20	 0.0	 0.0	 1	    1.04445	    0.00000	 225.0	 1	    1.08889	    1.00000;
	53	 2	 7.90	 -4.70	 0.0	 0.0	 1	    1.01587	    0.00000	 63.0	 1	    1.06349	    0.96825;
	54	 1	 0.0	 0.0	 0.0	 0.0	 1	    1.02333	    0.00000	 150.0	 1	    1.08000	    0.96667;
	55	 1	 55.02	 8.50	 0.0	 0.0	 1	    1.04730	    0.00000	 225.0	 1	    1.09459	    1.00000;
	56	 1	 0.0	 0.0	 0.0	 0.0	 1	    1.05263	    0.00000	 380.0	 1	    1.10526	    1.00000;
	57	 1	 80.20	 -7.70	 0.0	 0.0	 1	    1.03778	    0.00000	 225.0	 1	    1.08889	    0.98667;
	58	 1	 0.0	 0.0	 0.0	 -64.0	 1	    1.00000	    0.00000	 20.0	 1	    1.20000	    0.80000;
	59	 1	 35.30	 -9.20	 0.0	 0.0	 1	    1.02889	    0.00000	 225.0	 1	    1.08889	    0.96889;
	60	 1	 80.01	 2.60	 0.0	 0.0	 1	    1.05263	    0.00000	 380.0	 1	    1.10526	    1.00000;
	61	 1	 7.47	 1.70	 0.0	 0.0	 1	    1.00000	    0.00000	 63.0	 1	    1.06349	    0.93651;
	62	 1	 0.82	 0.70	 0.0	 0.0	 1	    1.01587	    0.00000	 63.0	 1	    1.06349	    0.96825;
	63	 1	 38.85	 4.10	 0.0	 0.0	 1	    1.01587	    0.00000	 63.0	 1	    1.06349	    0.96825;
	2577	 1	 0.0	 0.0	 0.0	 0.0	 1	    1.01587	    0.00000	 63.0	 1	    1.06349	    0.96825;
	64	 1	 53.80	 9.40	 0.0	 0.0	 1	    1.01111	    0.00000	 225.0	 1	    1.08889	    0.93333;
	65	 1	 0.0	 0.0	 0.0	 0.0	 1	    1.01587	    0.00000	 63.0	 1	    1.06349	    0.96825;
	66	 1	 12.50	 -6.50	 0.0	 0.0	 1	    0.94444	    0.00000	 45.0	 1	    1.00000	    0.88889;
	2578	 2	 0.0	 0.0	 0.0	 0.0	 1	    0.94444	    0.00000	 45.0	 1	    1.00000	    0.88889;
	67	 1	 0.54	 3.20	 0.0	 0.0	 1	    0.98889	    0.00000	 225.0	 1	    1.08889	    0.88889;
	2579	 1	 57.74	 7.20	 0.0	 0.0	 1	    0.98889	    0.00000	 225.0	 1	    1.08889	    0.88889;
	68	 1	 4.20	 -2.20	 0.0	 0.0	 1	    1.00000	    0.00000	 20.0	 1	    1.20000	    0.80000;
	69	 1	 189.24	 4.70	 0.0	 0.0	 1	    1.04343	    0.00000	 225.0	 1	    1.08685	    1.00000;
	70	 1	 83.70	 -8.30	 0.0	 0.0	 1	    1.04445	    0.00000	 225.0	 1	    1.08889	    1.00000;
	71	 2	 0.0	 0.0	 0.0	 0.0	 1	    1.00442	    0.00000	 150.0	 1	    1.10885	    0.90000;
	72	 1	 0.0	 0.0	 0.0	 0.0	 1	    1.04445	    0.00000	 225.0	 1	    1.08889	    1.00000;
	2580	 1	 0.0	 0.0	 0.0	 0.0	 1	    1.04445	    0.00000	 225.0	 1	    1.08889	    1.00000;
	74	 1	 0.0	 0.0	 0.0	 -80.0	 1	    1.04445	    0.00000	 225.0	 1	    1.08889	    1.00000;
	75	 1	 20.65	 5.40	 0.0	 0.0	 1	    1.00000	    0.00000	 63.0	 1	    1.06349	    0.93651;
	76	 2	 0.0	 0.0	 0.0	 0.0	 1	    0.94444	    0.00000	 45.0	 1	    1.00000	    0.88889;
	77	 1	 5.70	 -1.30	 0.0	 0.0	 1	    1.00272	    0.00000	 63.0	 1	    1.08481	    0.92063;
	78	 1	 10.60	 5.80	 0.0	 0.0	 1	    1.04445	    0.00000	 225.0	 1	    1.08889	    1.00000;
	79	 1	 14.00	 -4.60	 0.0	 0.0	 1	    1.00000	    0.00000	 63.0	 1	    1.07937	    0.92063;
	80	 1	 7.10	 -2.30	 0.0	 0.0	 1	    1.00404	    0.00000	 63.0	 1	    1.08744	    0.92063;
	81	 1	 0.0	 0.0	 0.0	 0.0	 1	    1.04445	    0.00000	 225.0	 1	    1.08889	    1.00000;
	82	 1	 80.96	 24.00	 0.0	 0.0	 1	    0.98889	    0.00000	 225.0	 1	    1.08889	    0.88889;
	83	 1	 27.80	 -7.50	 0.0	 0.0	 1	    1.01544	    0.00000	 63.0	 1	    1.06349	    0.96740;
	84	 1	 61.10	 -4.50	 0.0	 0.0	 1	    1.02889	    0.00000	 225.0	 1	    1.08889	    0.96889;
	85	 1	 0.0	 0.0	 0.0	 0.0	 1	    1.05263	    0.00000	 380.0	 1	    1.10526	    1.00000;
	86	 1	 43.20	 1.00	 0.0	 0.0	 1	    1.01587	    0.00000	 63.0	 1	    1.06349	    0.96825;
	87	 1	 22.80	 -0.90	 0.0	 0.0	 1	    1.01587	    0.00000	 63.0	 1	    1.06349	    0.96825;
	88	 1	 2.85	 0.80	 0.0	 0.0	 1	    1.01587	    0.00000	 63.0	 1	    1.06349	    0.96825;
	89	 1	 41.43	 6.30	 0.0	 0.0	 1	    1.01587	    0.00000	 63.0	 1	    1.06349	    0.96825;
	2581	 1	 43.47	 12.10	 0.0	 0.0	 1	    1.01587	    0.00000	 63.0	 1	    1.06349	    0.96825;
	90	 1	 0.0	 0.0	 0.0	 0.0	 1	    1.04222	    0.00000	 225.0	 1	    1.08444	    1.00000;
	2582	 1	 0.0	 0.0	 0.0	 0.0	 1	    1.04222	    0.00000	 225.0	 1	    1.08444	    1.00000;
	91	 1	 89.30	 -15.70	 0.0	 0.0	 1	    1.04445	    0.00000	 225.0	 1	    1.08889	    1.00000;
	92	 1	 6.40	 -11.60	 0.0	 0.0	 1	    1.01187	    0.00000	 225.0	 1	    1.09041	    0.93333;
	93	 2	 0.0	 0.0	 0.0	 0.0	 1	    1.00453	    0.00000	 150.0	 1	    1.10907	    0.90000;
	94	 1	 51.21	 57.20	 0.0	 0.0	 1	    1.04222	    0.00000	 225.0	 1	    1.08444	    1.00000;
	2583	 1	 33.40	 -0.50	 0.0	 0.0	 1	    1.04222	    0.00000	 225.0	 1	    1.08444	    1.00000;
	95	 1	 0.0	 0.0	 0.0	 0.0	 1	    1.03333	    0.00000	 225.0	 1	    1.08889	    0.97778;
	96	 1	 12.23	 0.80	 0.0	 0.0	 1	    0.98889	    0.00000	 225.0	 1	    1.08889	    0.88889;
	97	 1	 48.63	 4.50	 0.0	 0.0	 1	    1.01587	    0.00000	 63.0	 1	    1.06349	    0.96825;
	98	 1	 16.50	 -8.70	 0.0	 0.0	 1	    1.01111	    0.00000	 225.0	 1	    1.08889	    0.93333;
	99	 1	 38.85	 5.00	 0.0	 0.0	 1	    1.04445	    0.00000	 225.0	 1	    1.08889	    1.00000;
	2584	 1	 19.70	 3.60	 0.0	 0.0	 1	    1.04445	    0.00000	 225.0	 1	    1.08889	    1.00000;
	100	 1	 7.30	 -5.10	 0.0	 0.0	 1	    1.04445	    0.00000	 225.0	 1	    1.08889	    1.00000;
	101	 1	 8.69	 2.50	 0.0	 0.0	 1	    1.03778	    0.00000	 225.0	 1	    1.08889	    0.98667;
	102	 1	 0.0	 0.0	 0.0	 0.0	 1	    0.98889	    0.00000	 225.0	 1	    1.08889	    0.88889;
	2585	 1	 0.0	 0.0	 0.0	 0.0	 1	    0.98889	    0.00000	 225.0	 1	    1.08889	    0.88889;
	103	 1	 0.0	 0.0	 0.0	 0.0	 1	    1.05263	    0.00000	 380.0	 1	    1.10526	    1.00000;
	104	 1	 61.95	 7.00	 0.0	 0.0	 1	    1.04445	    0.00000	 225.0	 1	    1.08889	    1.00000;
	2586	 1	 25.95	 5.80	 0.0	 -80.0	 1	    1.04445	    0.00000	 225.0	 1	    1.08889	    1.00000;
	105	 1	 10.10	 -0.90	 0.0	 0.0	 1	    1.00000	    0.00000	 63.0	 1	    1.07937	    0.92063;
	106	 1	 0.0	 0.0	 0.0	 0.0	 1	    1.03333	    0.00000	 225.0	 1	    1.08889	    0.97778;
	2587	 1	 0.0	 0.0	 0.0	 0.0	 1	    1.03333	    0.00000	 225.0	 1	    1.08889	    0.97778;
	107	 1	 11.41	 3.50	 0.0	 0.0	 1	    1.01587	    0.00000	 63.0	 1	    1.06349	    0.96825;
	108	 1	 39.70	 -6.40	 0.0	 0.0	 1	    1.04222	    0.00000	 225.0	 1	    1.08444	    1.00000;
	109	 1	 0.0	 0.0	 0.0	 0.0	 1	    1.04222	    0.00000	 225.0	 1	    1.08444	    1.00000;
	110	 1	 0.0	 0.0	 0.0	 0.0	 1	    1.05131	    0.00000	 380.0	 1	    1.10263	    1.00000;
	111	 1	 62.20	 -16.10	 0.0	 0.0	 1	    1.04222	    0.00000	 225.0	 1	    1.08444	    1.00000;
	112	 1	 2.20	 -1.00	 0.0	 0.0	 1	    1.04517	    0.00000	 225.0	 1	    1.09035	    1.00000;
	2588	 1	 12.30	 -2.00	 0.0	 0.0	 1	    1.04517	    0.00000	 225.0	 1	    1.09035	    1.00000;
	113	 1	 5.00	 -3.80	 0.0	 0.0	 1	    0.98889	    0.00000	 225.0	 1	    1.08889	    0.88889;
	114	 1	 30.00	 0.00	 0.0	 0.0	 1	    1.00000	    0.00000	 63.0	 1	    1.06349	    0.93651;
	115	 1	 15.89	 1.80	 0.0	 0.0	 1	    0.98889	    0.00000	 225.0	 1	    1.08889	    0.88889;
	116	 1	 70.50	 15.90	 0.0	 0.0	 1	    0.98889	    0.00000	 225.0	 1	    1.08889	    0.88889;
	117	 1	 3.53	 0.20	 0.0	 0.0	 1	    1.01587	    0.00000	 63.0	 1	    1.06349	    0.96825;
	118	 1	 51.62	 3.10	 0.0	 0.0	 1	    1.00000	    0.00000	 63.0	 1	    1.07937	    0.92063;
	119	 1	 24.00	 -7.30	 0.0	 0.0	 1	    1.01587	    0.00000	 63.0	 1	    1.06349	    0.96825;
	120	 2	 0.0	 0.0	 0.0	 0.0	 1	    1.00257	    0.00000	 63.0	 1	    1.06863	    0.93651;
	121	 1	 10.87	 2.50	 0.0	 0.0	 1	    1.01587	    0.00000	 63.0	 1	    1.06349	    0.96825;
	2589	 1	 13.45	 3.50	 0.0	 0.0	 1	    1.01587	    0.00000	 63.0	 1	    1.06349	    0.96825;
	122	 1	 77.10	 -3.90	 0.0	 0.0	 1	    1.04445	    0.00000	 225.0	 1	    1.08889	    1.00000;
	123	 1	 28.80	 4.40	 0.0	 0.0	 1	    1.00000	    0.00000	 63.0	 1	    1.07937	    0.92063;
	124	 2	 -0.00	 -4.60	 0.0	 0.0	 1	    1.00133	    0.00000	 63.0	 1	    1.08203	    0.92063;
	125	 1	 0.0	 0.0	 0.0	 0.0	 1	    1.00000	    0.00000	 63.0	 1	    1.07937	    0.92063;
	126	 1	 0.0	 0.0	 0.0	 0.0	 1	    1.04445	    0.00000	 225.0	 1	    1.08889	    1.00000;
	127	 1	 0.0	 0.0	 0.0	 0.0	 1	    1.05263	    0.00000	 380.0	 1	    1.10526	    1.00000;
	128	 1	 23.23	 1.50	 0.0	 0.0	 1	    1.00000	    0.00000	 63.0	 1	    1.06349	    0.93651;
	129	 2	 24.72	 12.20	 0.0	 0.0	 1	    1.00000	    0.00000	 63.0	 1	    1.06349	    0.93651;
	130	 1	 -13.20	 16.10	 0.0	 0.0	 1	    1.00000	    0.00000	 63.0	 1	    1.07937	    0.92063;
	131	 1	 0.0	 0.0	 0.0	 0.0	 1	    1.04445	    0.00000	 225.0	 1	    1.08889	    1.00000;
	132	 1	 110.31	 18.30	 0.0	 0.0	 1	    1.04445	    0.00000	 225.0	 1	    1.08889	    1.00000;
	133	 2	 13.04	 3.30	 0.0	 0.0	 1	    1.01682	    0.00000	 63.0	 1	    1.06538	    0.96825;
	134	 2	 0.0	 0.0	 0.0	 0.0	 1	    1.02333	    0.00000	 150.0	 1	    1.08000	    0.96667;
	135	 2	 -8.90	 -4.40	 0.0	 0.0	 1	    1.00000	    0.00000	 63.0	 1	    1.07937	    0.92063;
	136	 1	 -10.60	 -2.10	 0.0	 0.0	 1	    1.03778	    0.00000	 225.0	 1	    1.08889	    0.98667;
	137	 1	 14.10	 -3.70	 0.0	 0.0	 1	    1.01587	    0.00000	 63.0	 1	    1.06349	    0.96825;
	138	 1	 11.30	 -2.70	 0.0	 0.0	 1	    1.04222	    0.00000	 225.0	 1	    1.08444	    1.00000;
	139	 1	 9.40	 -2.20	 0.0	 0.0	 1	    1.01587	    0.00000	 63.0	 1	    1.06349	    0.96825;
	140	 1	 0.0	 0.0	 0.0	 0.0	 1	    1.05263	    0.00000	 380.0	 1	    1.10526	    1.00000;
	2590	 1	 0.0	 0.0	 0.0	 0.0	 1	    1.05263	    0.00000	 380.0	 1	    1.10526	    1.00000;
	141	 1	 15.08	 4.50	 0.0	 0.0	 1	    1.04445	    0.00000	 225.0	 1	    1.08889	    1.00000;
	142	 1	 9.78	 5.20	 0.0	 0.0	 1	    1.04445	    0.00000	 225.0	 1	    1.08889	    1.00000;
	143	 1	 20.90	 -1.30	 0.0	 0.0	 1	    1.01587	    0.00000	 63.0	 1	    1.06349	    0.96825;
	144	 1	 45.37	 6.50	 0.0	 0.0	 1	    1.00000	    0.00000	 150.0	 1	    1.10000	    0.90000;
	145	 1	 61.80	 -3.30	 0.0	 0.0	 1	    1.04462	    0.00000	 225.0	 1	    1.08925	    1.00000;
	146	 2	 0.0	 -0.0	 0.0	 0.0	 1	    1.04445	    0.00000	 225.0	 1	    1.08889	    1.00000;
	147	 1	 0.0	 0.0	 0.0	 0.0	 1	    1.01111	    0.00000	 225.0	 1	    1.08889	    0.93333;
	148	 1	 0.0	 0.0	 0.0	 0.0	 1	    1.05263	    0.00000	 380.0	 1	    1.10526	    1.00000;
	2591	 1	 0.0	 0.0	 0.0	 0.0	 1	    1.05263	    0.00000	 380.0	 1	    1.10526	    1.00000;
	149	 1	 0.0	 0.0	 0.0	 0.0	 1	    1.04445	    0.00000	 225.0	 1	    1.08889	    1.00000;
	2592	 1	 83.95	 10.20	 0.0	 0.0	 1	    1.04445	    0.00000	 225.0	 1	    1.08889	    1.00000;
	150	 1	 0.0	 0.0	 0.0	 0.0	 1	    1.03778	    0.00000	 225.0	 1	    1.08889	    0.98667;
	151	 1	 13.31	 4.50	 0.0	 0.0	 1	    1.04445	    0.00000	 225.0	 1	    1.08889	    1.00000;
	152	 1	 0.0	 0.0	 0.0	 0.0	 1	    1.00000	    0.00000	 20.0	 1	    1.20000	    0.80000;
	153	 1	 88.20	 -7.10	 0.0	 0.0	 1	    1.01111	    0.00000	 225.0	 1	    1.08889	    0.93333;
	154	 1	 0.0	 0.0	 0.0	 0.0	 1	    1.05263	    0.00000	 380.0	 1	    1.10526	    1.00000;
	155	 1	 23.80	 -12.30	 0.0	 0.0	 1	    1.04445	    0.00000	 225.0	 1	    1.08889	    1.00000;
	156	 1	 18.20	 -0.60	 0.0	 0.0	 1	    1.00077	    0.00000	 63.0	 1	    1.06503	    0.93651;
	157	 1	 0.54	 0.20	 0.0	 0.0	 1	    1.01587	    0.00000	 63.0	 1	    1.06349	    0.96825;
	158	 1	 18.70	 -2.50	 0.0	 0.0	 1	    1.00000	    0.00000	 63.0	 1	    1.07937	    0.92063;
	159	 1	 19.20	 -1.00	 0.0	 0.0	 1	    1.01587	    0.00000	 63.0	 1	    1.06349	    0.96825;
	160	 1	 5.43	 0.20	 0.0	 0.0	 1	    1.00000	    0.00000	 63.0	 1	    1.06349	    0.93651;
	161	 2	 0.0	 0.0	 0.0	 0.0	 1	    0.97500	    0.00000	 63.0	 1	    1.15000	    0.80000;
	162	 1	 3.80	 3.90	 0.0	 0.0	 1	    1.04527	    0.00000	 225.0	 1	    1.09053	    1.00000;
	163	 1	 0.0	 0.0	 0.0	 0.0	 1	    1.01587	    0.00000	 63.0	 1	    1.06349	    0.96825;
	164	 1	 68.70	 -27.80	 0.0	 0.0	 1	    1.04895	    0.00000	 225.0	 1	    1.09791	    1.00000;
	165	 1	 70.90	 -7.80	 0.0	 0.0	 1	    1.03778	    0.00000	 225.0	 1	    1.08889	    0.98667;
	166	 1	 48.50	 1.20	 0.0	 0.0	 1	    1.01587	    0.00000	 63.0	 1	    1.06349	    0.96825;
	167	 1	 90.88	 15.70	 0.0	 0.0	 1	    1.04534	    0.00000	 225.0	 1	    1.09067	    1.00000;
	168	 1	 10.20	 -5.90	 0.0	 0.0	 1	    1.00000	    0.00000	 63.0	 1	    1.06349	    0.93651;
	169	 1	 22.50	 -8.30	 0.0	 0.0	 1	    1.01587	    0.00000	 63.0	 1	    1.06349	    0.96825;
	170	 1	 4.21	 1.20	 0.0	 0.0	 1	    1.00236	    0.00000	 63.0	 1	    1.06822	    0.93651;
	171	 1	 141.15	 36.40	 0.0	 0.0	 1	    1.00667	    0.00000	 225.0	 1	    1.08889	    0.92444;
	172	 2	 -0.0	 0.0	 0.0	 0.0	 1	    1.01587	    0.00000	 63.0	 1	    1.06349	    0.96825;
	173	 1	 46.90	 -16.30	 0.0	 0.0	 1	    1.04141	    0.00000	 225.0	 1	    1.09616	    0.98667;
	174	 1	 0.0	 0.0	 0.0	 0.0	 1	    1.05263	    0.00000	 380.0	 1	    1.10526	    1.00000;
	175	 1	 83.40	 -19.90	 0.0	 0.0	 1	    1.04222	    0.00000	 225.0	 1	    1.08444	    1.00000;
	176	 1	 0.0	 0.0	 0.0	 -64.0	 1	    1.00000	    0.00000	 20.0	 1	    1.20000	    0.80000;
	177	 1	 0.0	 0.0	 0.0	 0.0	 1	    1.01217	    0.00000	 63.0	 1	    1.06349	    0.96086;
	178	 1	 0.0	 0.0	 0.0	 0.0	 1	    1.04222	    0.00000	 225.0	 1	    1.08444	    1.00000;
	179	 1	 0.0	 0.0	 0.0	 0.0	 1	    1.05131	    0.00000	 380.0	 1	    1.10263	    1.00000;
...
];

%% generator data
%	bus	Pg	Qg	Qmax	Qmin	Vg	mBase	status	Pmax	Pmin
mpc.gen = [
	1279	 278.25	 0.0	 277.0	 -277.0	 1.04445	 100.0	 1	 553	 3.5; % COW
	1210	 37.305	 0.0	 36.0	 -36.0	 1.0	 100.0	 1	 71	 3.61; % COW
	751	 64.3	 0.0	 3885.6	 -3885.6	 1.01588	 100.0	 1	 124	 4.6; % PEL
	978	 45.5	 0.0	 46.0	 -46.0	 1.0	 100.0	 1	 91	 0.0; % NG
	978	 33.85	 0.0	 34.0	 -34.0	 1.0	 100.0	 1	 67	 0.7; % COW
	158	 38.5	 0.0	 39.0	 -39.0	 1.0	 100.0	 1	 77	 0.0; % PEL
	1217	 59.15	 0.0	 59.0	 -59.0	 1.02261	 100.0	 1	 117	 1.3; % NG
	367	 88.0	 0.0	 86.0	 -86.0	 1.0	 100.0	 1	 171	 5.0; % NG
	1127	 77.3	 0.0	 77.0	 -77.0	 1.01587	 100.0	 1	 153	 1.6; % NG
	460	 68.6	 0.0	 66.0	 -66.0	 1.04643	 100.0	 1	 131	 6.2; % NG
	968	 38.9	 0.0	 3850.8	 -3850.8	 1.0	 100.0	 1	 76	 1.8; % PEL
	1827	 98.6	 0.0	 175.2	 -175.2	 1.03333	 100.0	 1	 195	 2.2; % NG
	1466	 24.25	 0.0	 31.2	 -31.2	 1.0	 100.0	 1	 48	 0.5; % NG
	2863	 54.75	 0.0	 55.0	 -55.0	 1.0	 100.0	 1	 109	 0.5; % NG
	1466	 43.75	 0.0	 44.0	 -44.0	 1.0	 100.0	 1	 87	 0.5; % NG
	2863	 85.75	 0.0	 86.0	 -86.0	 1.0	 100.0	 1	 171	 0.5; % NG
	1072	 55.1	 0.0	 1510.8	 -1510.8	 1.00445	 100.0	 1	 109	 1.2; % NG
	1072	 0.0	 0.0	 80.0	 -80.0	 1.00445	 100.0	 0	 160	 1.4; % NG
	1072	 31.6	 0.0	 1510.8	 -1510.8	 1.00445	 100.0	 1	 62	 1.2; % PEL
	642	 27.5175	 0.0	 27.0	 -27.0	 1.02121	 100.0	 1	 54	 1.035; % NG
	642	 62.5175	 0.0	 62.0	 -62.0	 1.02121	 100.0	 1	 124	 1.035; % NG
	542	 74.75	 0.0	 74.0	 -74.0	 1.01587	 100.0	 1	 147	 2.5; % NG
	773	 38.1	 0.0	 38.0	 -38.0	 1.0	 100.0	 1	 75	 1.2; % NG
	399	 68.19	 0.0	 68.0	 -68.0	 1.01587	 100.0	 1	 135	 1.38; % COW
	399	 48.5	 0.0	 49.0	 -49.0	 1.01587	 100.0	 1	 97	 0.0; % PEL
	21	 22.7	 0.0	 154.8	 -154.8	 0.98889	 100.0	 1	 43	 2.4; % PEL
	21	 36.88	 0.0	 154.8	 -154.8	 0.98889	 100.0	 1	 71	 2.76; % NG
	899	 70.9	 0.0	 70.0	 -70.0	 1.00071	 100.0	 1	 140	 1.8; % NG
	899	 60.05	 0.0	 59.0	 -59.0	 1.00071	 100.0	 1	 118	 2.1; % NG
	2618	 27.8	 0.0	 28.0	 -28.0	 1.0	 100.0	 1	 55	 0.6; % PEL
	2618	 58.375	 0.0	 57.0	 -57.0	 1.0	 100.0	 1	 113	 3.75; % PEL
	285	 94.3	 0.0	 94.0	 -94.0	 1.0	 100.0	 1	 188	 0.6; % NG
	285	 42.875	 0.0	 41.0	 -41.0	 1.0	 100.0	 1	 82	 3.75; % PEL
	135	 50.65	 0.0	 50.0	 -50.0	 1.0	 100.0	 1	 100	 1.3; % NG
	53	 39.9	 0.0	 39.0	 -39.0	 1.01587	 100.0	 1	 78	 1.8; % PEL
	53	 44.4	 0.0	 44.0	 -44.0	 1.01587	 100.0	 1	 87	 1.8; % PEL
	596	 675.5	 0.0	 676.0	 -676.0	 1.04598	 100.0	 1	 1351	 0.0; % PEL
	958	 24.5	 0.0	 25.0	 -25.0	 0.975	 100.0	 1	 49	 0.0; % PEL
	1679	 27.05	 0.0	 26.0	 -26.0	 1.0	 100.0	 1	 52	 2.1; % PEL
	1679	 102.55	 0.0	 102.0	 -102.0	 1.0	 100.0	 1	 203	 2.1; % NG
	1157	 40.86	 0.0	 41.0	 -41.0	 1.01587	 100.0	 1	 81	 0.72; % NG
	513	 29.05	 0.0	 29.0	 -29.0	 1.0	 100.0	 1	 57	 1.1; % NG
	513	 31.05	 0.0	 31.0	 -31.0	 1.0	 100.0	 1	 61	 1.1; % NG
	371	 38.9	 0.0	 39.0	 -39.0	 1.0	 100.0	 1	 77	 0.8; % COW
	371	 19.9	 0.0	 20.0	 -20.0	 1.0	 100.0	 1	 39	 0.8; % NG
	976	 53.25	 0.0	 52.0	 -52.0	 1.01587	 100.0	 1	 103	 3.5; % NG
	976	 24.75	 0.0	 23.0	 -23.0	 1.01587	 100.0	 1	 46	 3.5; % PEL
	2754	 86.075	 0.0	 86.0	 -86.0	 1.01948	 100.0	 1	 171	 1.15; % PEL
	749	 14.425	 0.0	 24.0	 -24.0	 0.94444	 100.0	 1	 28	 0.85; % NG
	1188	 23.5	 0.0	 505.2	 -505.2	 1.00463	 100.0	 1	 45	 2.0; % NG
	1254	 22.7	 0.0	 22.0	 -22.0	 1.00129	 100.0	 1	 43	 2.4; % NG
	252	 8.55	 0.0	 8.0	 -8.0	 0.94444	 100.0	 1	 16	 1.1; % PEL
	252	 21.45	 0.0	 21.0	 -21.0	 0.94444	 100.0	 1	 42	 0.9; % NG
	252	 26.05	 0.0	 26.0	 -26.0	 0.94444	 100.0	 1	 51	 1.1; % NG
	252	 27.45	 0.0	 27.0	 -27.0	 0.94444	 100.0	 1	 54	 0.9; % NG
	504	 28.12	 0.0	 36.0	 -36.0	 0.94451	 100.0	 1	 55	 1.24; % COW
	115	 23.265	 0.0	 309.6	 -309.6	 0.98889	 100.0	 1	 44	 2.53; % NG
	967	 34.5	 0.0	 4129.2	 -4129.2	 1.0	 100.0	 1	 69	 0.0; % PEL
	1642	 56.5	 0.0	 57.0	 -57.0	 1.01774	 100.0	 1	 113	 0.0; % PEL
	1811	 33.45	 0.0	 33.0	 -33.0	 1.00381	 100.0	 1	 66	 0.9; % PEL
	2634	 50.2	 0.0	 52.8	 -52.8	 1.0	 100.0	 1	 99	 1.4; % PEL
	326	 30.2	 0.0	 44.4	 -44.4	 1.0	 100.0	 1	 59	 1.4; % NG
	1829	 78.64	 0.0	 78.0	 -78.0	 1.0	 100.0	 1	 156	 1.28; % NG
	1314	 45.95	 0.0	 44.0	 -44.0	 1.0057	 100.0	 1	 88	 3.9; % NG
	71	 78.0	 0.0	 1861.2	 -1861.2	 1.00442	 100.0	 1	 153	 3.0; % NG
	93	 59.8	 0.0	 2691.6	 -2691.6	 1.00453	 100.0	 1	 119	 0.6; % PEL
	129	 119.55	 0.0	 119.0	 -119.0	 1.0	 100.0	 1	 238	 1.1; % NG
	1594	 69.6	 0.0	 69.0	 -69.0	 1.02196	 100.0	 1	 138	 1.2; % NG
	1594	 17.6	 0.0	 17.0	 -17.0	 1.02196	 100.0	 1	 34	 1.2; % NG
	1354	 102.5	 0.0	 103.0	 -103.0	 1.01587	 100.0	 1	 205	 0.0; % NG
	1133	 47.8625	 0.0	 47.0	 -47.0	 1.01587	 100.0	 1	 94	 1.725; % PEL
	1405	 45.39	 0.0	 44.0	 -44.0	 1.0	 100.0	 1	 87	 3.78; % NG
	2850	 55.89	 0.0	 54.0	 -54.0	 1.0	 100.0	 1	 108	 3.78; % PEL
	2849	 37.39	 0.0	 36.0	 -36.0	 1.0	 100.0	 1	 71	 3.78; % NG
	1122	 94.845	 0.0	 95.0	 -95.0	 1.01587	 100.0	 1	 189	 0.69; % NG
	1708	 102.0	 0.0	 91.0	 -91.0	 1.03778	 100.0	 1	 182	 22.0; % PEL
	1708	 123.5	 0.0	 113.0	 -113.0	 1.03778	 100.0	 1	 225	 22.0; % PEL
	1658	 23.495	 0.0	 42.0	 -42.0	 1.0	 100.0	 1	 44	 2.99; % PEL
	2884	 20.685	 0.0	 186.0	 -186.0	 1.0	 100.0	 1	 40	 1.37; % PEL
	1154	 47.04	 0.0	 46.0	 -46.0	 1.0	 100.0	 1	 92	 2.08; % PEL
	231	 214.415	 0.0	 214.0	 -214.0	 1.01111	 100.0	 1	 428	 0.83; % NG
	2887	 43.185	 0.0	 42.0	 -42.0	 1.0	 100.0	 1	 84	 2.37; % PEL
	2888	 37.685	 0.0	 37.0	 -37.0	 1.0	 100.0	 1	 73	 2.37; % PEL
	2889	 42.685	 0.0	 42.0	 -42.0	 1.0	 100.0	 1	 83	 2.37; % PEL
	1666	 29.185	 0.0	 28.0	 -28.0	 1.0	 100.0	 1	 56	 2.37; % NG
	499	 15.35	 0.0	 15.0	 -15.0	 1.02872	 100.0	 1	 29	 1.7; % NG
	499	 0.0	 0.0	 110.0	 -110.0	 1.02872	 100.0	 0	 219	 0.7; % PEL
	499	 45.85	 0.0	 45.0	 -45.0	 1.02872	 100.0	 1	 90	 1.7; % NG
	2709	 59.2	 0.0	 58.0	 -58.0	 1.0	 100.0	 1	 116	 2.4; % PEL
	709	 74.7	 0.0	 74.0	 -74.0	 1.0	 100.0	 1	 147	 2.4; % NG
	2710	 39.2	 0.0	 38.0	 -38.0	 1.0	 100.0	 1	 76	 2.4; % COW
	2708	 67.2	 0.0	 66.0	 -66.0	 1.0	 100.0	 1	 132	 2.4; % NG
	1280	 42.4	 0.0	 74.4	 -74.4	 1.00169	 100.0	 1	 83	 1.8; % NG
	1493	 0.0	 0.0	 37.0	 -37.0	 0.94444	 100.0	 0	 73	 1.8; % NG
	745	 32.95	 0.0	 32.0	 -32.0	 1.0	 100.0	 1	 63	 2.9; % NG
	2727	 71.95	 0.0	 71.0	 -71.0	 1.0	 100.0	 1	 141	 2.9; % NG
	1445	 84.25	 0.0	 148.8	 -148.8	 1.02667	 100.0	 1	 163	 5.5; % NG
	564	 91.0	 0.0	 4143.6	 -4143.6	 1.01587	 100.0	 1	 181	 1.0; % NG
	1047	 38.1	 0.0	 38.0	 -38.0	 1.00054	 100.0	 1	 75	 1.2; % NG
	1047	 20.0	 0.0	 20.0	 -20.0	 1.00054	 100.0	 1	 40	 0.0; % PEL
	1335	 48.0	 0.0	 60.0	 -60.0	 1.00381	 100.0	 1	 96	 0.0; % PEL
	2624	 20.55	 0.0	 19.0	 -19.0	 1.0	 100.0	 1	 38	 3.1; % NG
	298	 35.55	 0.0	 34.0	 -34.0	 1.0	 100.0	 1	 68	 3.1; % PEL
	298	 23.05	 0.0	 22.0	 -22.0	 1.0	 100.0	 1	 43	 3.1; % PEL
	2625	 27.05	 0.0	 26.0	 -26.0	 1.0	 100.0	 1	 51	 3.1; % NG
	2625	 26.55	 0.0	 25.0	 -25.0	 1.0	 100.0	 1	 50	 3.1; % PEL
	2624	 36.05	 0.0	 35.0	 -35.0	 1.0	 100.0	 1	 69	 3.1; % PEL
	2947	 47.7	 0.0	 47.0	 -47.0	 1.0	 100.0	 1	 93	 2.4; % COW
	2718	 37.7	 0.0	 37.0	 -37.0	 1.0	 100.0	 1	 73	 2.4; % PEL
	2720	 29.7	 0.0	 29.0	 -29.0	 1.0	 100.0	 1	 57	 2.4; % PEL
	741	 70.7	 0.0	 70.0	 -70.0	 1.0	 100.0	 1	 139	 2.4; % COW
	2719	 66.2	 0.0	 65.0	 -65.0	 1.0	 100.0	 1	 130	 2.4; % PEL
	2721	 60.2	 0.0	 59.0	 -59.0	 1.0	 100.0	 1	 118	 2.4; % PEL
	283	 42.175	 0.0	 41.0	 -41.0	 0.98889	 100.0	 1	 82	 2.35; % NG
	1506	 170.35	 0.0	 169.0	 -169.0	 1.01641	 100.0	 1	 338	 2.7; % NG
	1506	 152.85	 0.0	 152.0	 -152.0	 1.01641	 100.0	 1	 303	 2.7; % NG
	1847	 65.6	 0.0	 64.0	 -64.0	 1.01587	 100.0	 1	 128	 3.2; % PEL
	1398	 116.5	 0.0	 116.0	 -116.0	 1.0	 100.0	 1	 231	 2.0; % NG
	1398	 94.5175	 0.0	 94.0	 -94.0	 1.0	 100.0	 1	 187	 2.035; % NG
	225	 64.75	 0.0	 63.0	 -63.0	 1.0	 100.0	 1	 125	 4.5; % NG
	225	 44.75	 0.0	 45.0	 -45.0	 1.0	 100.0	 1	 85	 4.5; % NG
	1607	 24.5	 0.0	 25.0	 -25.0	 1.0	 100.0	 1	 49	 0.0; % PEL
	314	 26.0	 0.0	 25.0	 -25.0	 0.94488	 100.0	 1	 50	 2.0; % NG
	2680	 112.5	 0.0	 102.0	 -102.0	 1.0	 100.0	 1	 203	 22.0; % NG
	582	 0.0	 0.0	 70.0	 -45.0	 1.0	 100.0	 0	 26	 82.0; % NG
	2978	 0.0	 0.0	 70.0	 -45.0	 1.0	 100.0	 0	 67	 41.0; % NG
	2977	 156.5	 0.0	 146.0	 -146.0	 1.0	 100.0	 1	 291	 22.0; % NG
	240	 131.45	 0.0	 120.0	 -120.0	 1.05347	 100.0	 1	 239	 23.9; % NG
	1655	 44.6	 0.0	 44.0	 -44.0	 1.0	 100.0	 1	 88	 1.2; % COW
	1655	 65.0	 0.0	 65.0	 -65.0	 1.0	 100.0	 1	 130	 0.0; % NG
	1150	 98.2	 0.0	 96.0	 -96.0	 1.03778	 100.0	 1	 191	 5.4; % NG
	1447	 27.35	 0.0	 45.6	 -45.6	 1.01587	 100.0	 1	 54	 0.7; % COW
	906	 0.0	 0.0	 8.0	 -8.0	 1.04623	 100.0	 0	 3	 2.1; % PEL
	1474	 0.0	 -0.0	 1.0	 -1.0	 1.01587	 100.0	 0	 1	 0.0; % PEL
	1474	 32.9	 0.0	 33.0	 -33.0	 1.01587	 100.0	 1	 65	 0.8; % NG
	1474	 97.4	 0.0	 97.0	 -97.0	 1.01587	 100.0	 1	 194	 0.8; % COW
	963	 101.445	 0.0	 101.0	 -101.0	 1.01587	 100.0	 1	 202	 0.89; % NG
	962	 117.6	 0.0	 117.0	 -117.0	 1.0	 100.0	 1	 233	 2.2; % COW
	923	 48.6	 0.0	 48.0	 -48.0	 1.01587	 100.0	 1	 96	 1.2; % NG
	1153	 41.3	 0.0	 41.0	 -41.0	 1.00165	 100.0	 1	 81	 1.6; % PEL
	1153	 25.84	 0.0	 28.8	 -28.8	 1.00165	 100.0	 1	 50	 1.68; % NG
	274	 15.835	 0.0	 16.0	 -16.0	 1.0	 100.0	 1	 31	 0.67; % NG
	274	 57.28	 0.0	 57.0	 -57.0	 1.0	 100.0	 1	 114	 0.56; % NG
	1776	 39.5	 0.0	 39.0	 -39.0	 1.01587	 100.0	 1	 78	 1.0; % NG
	1776	 119.0	 0.0	 119.0	 -119.0	 1.01587	 100.0	 1	 237	 1.0; % COW
	184	 45.17	 0.0	 49.2	 -49.2	 1.03333	 100.0	 1	 88	 2.34; % PEL
	1657	 35.3	 0.0	 56.4	 -56.4	 1.02333	 100.0	 1	 68	 2.6; % NG
	1657	 21.3	 0.0	 56.4	 -56.4	 1.02333	 100.0	 1	 40	 2.6; % PEL
	1761	 27.5	 0.0	 1311.6	 -1311.6	 1.00445	 100.0	 1	 55	 0.0; % PEL
	1761	 55.05	 0.0	 1311.6	 -1311.6	 1.00445	 100.0	 1	 109	 1.1; % PEL
	1868	 52.5	 0.0	 51.0	 -51.0	 1.0	 100.0	 1	 102	 3.0; % NG
	1868	 59.0	 0.0	 58.0	 -58.0	 1.0	 100.0	 1	 115	 3.0; % PEL
	731	 0.0	 0.0	 26.0	 -26.0	 1.0	 100.0	 0	 18	 4.3; % NG
	2715	 0.0	 0.0	 32.0	 -32.0	 1.0	 100.0	 0	 63	 3.8; % NG
	1263	 56.655	 0.0	 56.0	 -56.0	 1.0	 100.0	 1	 111	 2.31; % NG
	1263	 38.155	 0.0	 37.0	 -37.0	 1.0	 100.0	 1	 74	 2.31; % PEL
	161	 24.4	 0.0	 36.0	 -36.0	 0.975	 100.0	 1	 47	 1.8; % NG
	604	 67.01	 0.0	 67.0	 -67.0	 1.0	 100.0	 1	 133	 1.02; % NG
	918	 202.8	 0.0	 202.0	 -202.0	 1.0	 100.0	 1	 403	 2.6; % NG
	1760	 40.075	 0.0	 40.0	 -40.0	 1.00138	 100.0	 1	 79	 1.15; % NG
	1760	 37.575	 0.0	 37.0	 -37.0	 1.00138	 100.0	 1	 74	 1.15; % PEL
	1414	 35.65	 0.0	 35.0	 -35.0	 1.0	 100.0	 1	 70	 1.3; % COW
	1414	 74.1	 0.0	 74.0	 -74.0	 1.0	 100.0	 1	 147	 1.2; % NG
	662	 32.0	 0.0	 30.0	 -30.0	 1.0	 100.0	 1	 60	 4.0; % PEL
	2697	 76.5	 0.0	 75.0	 -75.0	 1.0	 100.0	 1	 149	 4.0; % NG
	2696	 21.5	 0.0	 20.0	 -20.0	 1.0	 100.0	 1	 39	 4.0; % NG
	1346	 41.1	 0.0	 41.0	 -41.0	 1.0	 100.0	 1	 81	 1.2; % COW
	1346	 32.1	 0.0	 32.0	 -32.0	 1.0	 100.0	 1	 63	 1.2; % COW
	2622	 6.9	 0.0	 26.0	 -26.0	 1.0	 100.0	 1	 13	 0.8; % COW
	2622	 21.25	 0.0	 26.0	 -26.0	 1.0	 100.0	 1	 41	 1.5; % NG
	291	 15.95	 0.0	 26.0	 -26.0	 1.0	 100.0	 1	 30	 1.9; % PEL
	1490	 69.53	 0.0	 69.0	 -69.0	 1.0	 100.0	 1	 138	 1.06; % PEL
	1671	 95.07	 0.0	 94.0	 -94.0	 1.01588	 100.0	 1	 188	 2.14; % NG
	1615	 0.0	 0.0	 35.0	 -35.0	 1.0	 100.0	 0	 70	 3.9; % NG
	1681	 107.85	 0.0	 104.0	 -104.0	 1.04445	 100.0	 1	 207	 8.7; % NG
	418	 98.75	 0.0	 95.0	 -95.0	 1.0	 100.0	 1	 190	 7.5; % PEL
	2658	 53.25	 0.0	 50.0	 -50.0	 1.0	 100.0	 1	 99	 7.5; % PEL
	418	 161.75	 0.0	 158.0	 -158.0	 1.0	 100.0	 1	 316	 7.5; % COW
	2658	 48.75	 2.5	 50.0	 -45.0	 1.0	 100.0	 1	 90	 7.5; % NG
	461	 58.57	 0.0	 57.6	 -57.6	 1.04445	 100.0	 1	 113	 4.14; % NG
	31	 26.335	 0.0	 26.0	 -26.0	 1.00431	 100.0	 1	 52	 0.67; % NG
	236	 80.25	 0.0	 80.0	 -80.0	 1.01587	 100.0	 1	 159	 1.5; % NG
	236	 31.25	 0.0	 31.0	 -31.0	 1.01587	 100.0	 1	 61	 1.5; % NG
	1754	 39.5	 0.0	 40.0	 -40.0	 1.01587	 100.0	 1	 79	 0.0; % PEL
	1754	 34.5	 0.0	 35.0	 -35.0	 1.01587	 100.0	 1	 69	 0.0; % PEL
	1754	 22.5	 0.0	 23.0	 -23.0	 1.01587	 100.0	 1	 45	 0.0; % PEL
	898	 11.0	 0.0	 11.0	 -11.0	 1.00132	 100.0	 1	 22	 0.0; % PEL
	898	 41.63	 0.0	 41.0	 -41.0	 1.00132	 100.0	 1	 81	 2.26; % PEL
	120	 58.25	 0.0	 58.0	 -58.0	 1.00257	 100.0	 1	 115	 1.5; % COW
	549	 97.25	 0.0	 96.0	 -96.0	 1.01587	 100.0	 1	 192	 2.5; % NG
	77	 26.675	 0.0	 26.0	 -26.0	 1.00272	 100.0	 1	 51	 2.35; % NG
	124	 -3.5	 0.0	 2.4	 -2.4	 1.00133	 100.0	 1	 0	 -7.0; % SYNC
	124	 -3.5	 0.0	 2.4	 -2.4	 1.00133	 100.0	 1	 0	 -7.0; % SYNC
	552	 75.05	 0.0	 74.0	 -74.0	 1.01587	 100.0	 1	 148	 2.1; % NG
	1858	 11.48	 0.0	 11.0	 -11.0	 0.94444	 100.0	 1	 22	 0.96; % NG
	134	 51.75	 0.0	 202.8	 -202.8	 1.02333	 100.0	 1	 101	 2.5; % PEL
	1204	 35.1	 0.0	 33.0	 -33.0	 1.00031	 100.0	 1	 66	 4.2; % NG
	1204	 76.1	 0.0	 74.0	 -74.0	 1.00031	 100.0	 1	 148	 4.2; % NG
	641	 42.05	 0.0	 42.0	 -42.0	 1.01587	 100.0	 1	 83	 1.1; % NG
	641	 20.55	 0.0	 20.0	 -20.0	 1.01587	 100.0	 1	 40	 1.1; % NG
...
];

%% generator cost data
%	2	startup	shutdown	n	c(n-1)	...	c0
mpc.gencost = [
	2	 0.0	 0.0	 3	   0.000000	  44.799484	   0.000000; % COW
	2	 0.0	 0.0	 3	   0.000000	 103.296155	   0.000000; % COW
	2	 0.0	 0.0	 3	   0.000000	 133.455196	   0.000000; % PEL
	2	 0.0	 0.0	 3	   0.000000	  34.971862	   0.000000; % NG
	2	 0.0	 0.0	 3	   0.000000	  16.008364	   0.000000; % COW
	2	 0.0	 0.0	 3	   0.000000	 102.186830	   0.000000; % PEL
	2	 0.0	 0.0	 3	   0.000000	  15.953518	   0.000000; % NG
	2	 0.0	 0.0	 3	   0.000000	  32.141291	   0.000000; % NG
	2	 0.0	 0.0	 3	   0.000000	  29.183767	   0.000000; % NG
	2	 0.0	 0.0	 3	   0.000000	  23.853833	   0.000000; % NG
	2	 0.0	 0.0	 3	   0.000000	 118.582641	   0.000000; % PEL
	2	 0.0	 0.0	 3	   0.000000	  30.823457	   0.000000; % NG
	2	 0.0	 0.0	 3	   0.000000	  33.549390	   0.000000; % NG
	2	 0.0	 0.0	 3	   0.000000	  39.990137	   0.000000; % NG
	2	 0.0	 0.0	 3	   0.000000	  47.299290	   0.000000; % NG
	2	 0.0	 0.0	 3	   0.000000	  28.709766	   0.000000; % NG
	2	 0.0	 0.0	 3	   0.000000	  19.392425	   0.000000; % NG
	2	 0.0	 0.0	 3	   0.000000	  26.184513	   0.000000; % NG
	2	 0.0	 0.0	 3	   0.000000	  33.437829	   0.000000; % PEL
	2	 0.0	 0.0	 3	   0.000000	 108.330250	   0.000000; % NG
	2	 0.0	 0.0	 3	   0.000000	  26.230713	   0.000000; % NG
	2	 0.0	 0.0	 3	   0.000000	 103.635089	   0.000000; % NG
	2	 0.0	 0.0	 3	   0.000000	  24.241333	   0.000000; % NG
	2	 0.0	 0.0	 3	   0.000000	  29.153992	   0.000000; % COW
	2	 0.0	 0.0	 3	   0.000000	 124.946912	   0.000000; % PEL
	2	 0.0	 0.0	 3	   0.000000	  68.707038	   0.000000; % PEL
	2	 0.0	 0.0	 3	   0.000000	  26.704666	   0.000000; % NG
	2	 0.0	 0.0	 3	   0.000000	  27.882410	   0.000000; % NG
	2	 0.0	 0.0	 3	   0.000000	   3.122472	   0.000000; % NG
	2	 0.0	 0.0	 3	   0.000000	  60.036951	   0.000000; % PEL
	2	 0.0	 0.0	 3	   0.000000	 111.709549	   0.000000; % PEL
	2	 0.0	 0.0	 3	   0.000000	  23.931234	   0.000000; % NG
	2	 0.0	 0.0	 3	   0.000000	  95.991511	   0.000000; % PEL
	2	 0.0	 0.0	 3	   0.000000	  28.164012	   0.000000; % NG
	2	 0.0	 0.0	 3	   0.000000	  23.898663	   0.000000; % PEL
	2	 0.0	 0.0	 3	   0.000000	  29.990273	   0.000000; % PEL
	2	 0.0	 0.0	 3	   0.000000	  21.640102	   0.000000; % PEL
	2	 0.0	 0.0	 3	   0.000000	  99.501055	   0.000000; % PEL
	2	 0.0	 0.0	 3	   0.000000	  42.286445	   0.000000; % PEL
	2	 0.0	 0.0	 3	   0.000000	 107.620861	   0.000000; % NG
	2	 0.0	 0.0	 3	   0.000000	 125.453061	   0.000000; % NG
	2	 0.0	 0.0	 3	   0.000000	  28.264565	   0.000000; % NG
	2	 0.0	 0.0	 3	   0.000000	  28.379323	   0.000000; % NG
	2	 0.0	 0.0	 3	   0.000000	  28.436306	   0.000000; % COW
	2	 0.0	 0.0	 3	   0.000000	 103.391635	   0.000000; % NG
	2	 0.0	 0.0	 3	   0.000000	 127.850488	   0.000000; % NG
	2	 0.0	 0.0	 3	   0.000000	  43.820274	   0.000000; % PEL
	2	 0.0	 0.0	 3	   0.000000	  47.760568	   0.000000; % PEL
	2	 0.0	 0.0	 3	   0.000000	  47.344597	   0.000000; % NG
	2	 0.0	 0.0	 3	   0.000000	  37.770921	   0.000000; % NG
	2	 0.0	 0.0	 3	   0.000000	 114.570030	   0.000000; % NG
	2	 0.0	 0.0	 3	   0.000000	  32.013476	   0.000000; % PEL
	2	 0.0	 0.0	 3	   0.000000	  99.587093	   0.000000; % NG
	2	 0.0	 0.0	 3	   0.000000	 119.827760	   0.000000; % NG
	2	 0.0	 0.0	 3	   0.000000	   9.006238	   0.000000; % NG
	2	 0.0	 0.0	 3	   0.000000	  31.739316	   0.000000; % COW
	2	 0.0	 0.0	 3	   0.000000	  36.171553	   0.000000; % NG
	2	 0.0	 0.0	 3	   0.000000	 128.098168	   0.000000; % PEL
	2	 0.0	 0.0	 3	   0.000000	  97.377789	   0.000000; % PEL
	2	 0.0	 0.0	 3	   0.000000	  57.036401	   0.000000; % PEL
	2	 0.0	 0.0	 3	   0.000000	 116.415321	   0.000000; % PEL
	2	 0.0	 0.0	 3	   0.000000	  33.024981	   0.000000; % NG
	2	 0.0	 0.0	 3	   0.000000	  30.752053	   0.000000; % NG
	2	 0.0	 0.0	 3	   0.000000	  33.988394	   0.000000; % NG
	2	 0.0	 0.0	 3	   0.000000	  99.494826	   0.000000; % NG
	2	 0.0	 0.0	 3	   0.000000	  37.844010	   0.000000; % PEL
	2	 0.0	 0.0	 3	   0.000000	  25.499729	   0.000000; % NG
	2	 0.0	 0.0	 3	   0.000000	 102.949110	   0.000000; % NG
	2	 0.0	 0.0	 3	   0.000000	  11.961915	   0.000000; % NG
	2	 0.0	 0.0	 3	   0.000000	 101.523604	   0.000000; % NG
	2	 0.0	 0.0	 3	   0.000000	 104.377305	   0.000000; % PEL
	2	 0.0	 0.0	 3	   0.000000	 108.463193	   0.000000; % NG
	2	 0.0	 0.0	 3	   0.000000	  37.951754	   0.000000; % PEL
	2	 0.0	 0.0	 3	   0.000000	  34.833311	   0.000000; % NG
	2	 0.0	 0.0	 3	   0.000000	 115.578599	   0.000000; % NG
	2	 0.0	 0.0	 3	   0.000000	  14.427786	   0.000000; % PEL
	2	 0.0	 0.0	 3	   0.000000	 120.524875	   0.000000; % PEL
	2	 0.0	 0.0	 3	   0.000000	 124.985551	   0.000000; % PEL
	2	 0.0	 0.0	 3	   0.000000	  19.400343	   0.000000; % PEL
	2	 0.0	 0.0	 3	   0.000000	  90.373394	   0.000000; % PEL
	2	 0.0	 0.0	 3	   0.000000	  20.052340	   0.000000; % NG
	2	 0.0	 0.0	 3	   0.000000	 107.933814	   0.000000; % PEL
	2	 0.0	 0.0	 3	   0.000000	  22.005869	   0.000000; % PEL
	2	 0.0	 0.0	 3	   0.000000	 116.828596	   0.000000; % PEL
	2	 0.0	 0.0	 3	   0.000000	 100.566682	   0.000000; % NG
	2	 0.0	 0.0	 3	   0.000000	 104.746350	   0.000000; % NG
	2	 0.0	 0.0	 3	   0.000000	  25.791232	   0.000000; % PEL
	2	 0.0	 0.0	 3	   0.000000	  33.981563	   0.000000; % NG
	2	 0.0	 0.0	 3	   0.000000	 109.189943	   0.000000; % PEL
	2	 0.0	 0.0	 3	   0.000000	  21.397310	   0.000000; % NG
	2	 0.0	 0.0	 3	   0.000000	  33.295795	   0.000000; % COW
	2	 0.0	 0.0	 3	   0.000000	 104.462662	   0.000000; % NG
	2	 0.0	 0.0	 3	   0.000000	 103.558096	   0.000000; % NG
	2	 0.0	 0.0	 3	   0.000000	 114.531843	   0.000000; % NG
	2	 0.0	 0.0	 3	   0.000000	  38.571527	   0.000000; % NG
	2	 0.0	 0.0	 3	   0.000000	 107.259574	   0.000000; % NG
	2	 0.0	 0.0	 3	   0.000000	  41.652072	   0.000000; % NG
	2	 0.0	 0.0	 3	   0.000000	  36.465111	   0.000000; % NG
	2	 0.0	 0.0	 3	   0.000000	 104.247680	   0.000000; % NG
	2	 0.0	 0.0	 3	   0.000000	 119.116253	   0.000000; % PEL
	2	 0.0	 0.0	 3	   0.000000	 110.375312	   0.000000; % PEL
	2	 0.0	 0.0	 3	   0.000000	 114.402174	   0.000000; % NG
	2	 0.0	 0.0	 3	   0.000000	  26.042437	   0.000000; % PEL
	2	 0.0	 0.0	 3	   0.000000	  52.028607	   0.000000; % PEL
	2	 0.0	 0.0	 3	   0.000000	  27.225852	   0.000000; % NG
	2	 0.0	 0.0	 3	   0.000000	 106.469686	   0.000000; % PEL
	2	 0.0	 0.0	 3	   0.000000	 121.847544	   0.000000; % PEL
	2	 0.0	 0.0	 3	   0.000000	 108.458154	   0.000000; % COW
	2	 0.0	 0.0	 3	   0.000000	 106.396544	   0.000000; % PEL
	2	 0.0	 0.0	 3	   0.000000	  24.492020	   0.000000; % PEL
	2	 0.0	 0.0	 3	   0.000000	  20.020401	   0.000000; % COW
	2	 0.0	 0.0	 3	   0.000000	 121.534834	   0.000000; % PEL
	2	 0.0	 0.0	 3	   0.000000	  20.892690	   0.000000; % PEL
	2	 0.0	 0.0	 3	   0.000000	  98.444260	   0.000000; % NG
	2	 0.0	 0.0	 3	   0.000000	 128.595595	   0.000000; % NG
	2	 0.0	 0.0	 3	   0.000000	  92.822681	   0.000000; % NG
	2	 0.0	 0.0	 3	   0.000000	 111.253342	   0.000000; % PEL
	2	 0.0	 0.0	 3	   0.000000	 112.169112	   0.000000; % NG
	2	 0.0	 0.0	 3	   0.000000	  18.465033	   0.000000; % NG
	2	 0.0	 0.0	 3	   0.000000	 116.124143	   0.000000; % NG
	2	 0.0	 0.0	 3	   0.000000	  38.326755	   0.000000; % NG
	2	 0.0	 0.0	 3	   0.000000	 114.380245	   0.000000; % PEL
	2	 0.0	 0.0	 3	   0.000000	  40.389120	   0.000000; % NG
	2	 0.0	 0.0	 3	   0.000000	  29.373328	   0.000000; % NG
	2	 0.0	 0.0	 3	   0.000000	 102.044459	   0.000000; % NG
	2	 0.0	 0.0	 3	   0.000000	  32.945699	   0.000000; % NG
	2	 0.0	 0.0	 3	   0.000000	  20.577052	   0.000000; % NG
	2	 0.0	 0.0	 3	   0.000000	  51.797149	   0.000000; % NG
	2	 0.0	 0.0	 3	   0.000000	 108.075500	   0.000000; % COW
	2	 0.0	 0.0	 3	   0.000000	  26.536594	   0.000000; % NG
	2	 0.0	 0.0	 3	   0.000000	  30.544208	   0.000000; % NG
	2	 0.0	 0.0	 3	   0.000000	 121.489265	   0.000000; % COW
	2	 0.0	 0.0	 3	   0.000000	  96.092215	   0.000000; % PEL
	2	 0.0	 0.0	 3	   0.000000	 104.520289	   0.000000; % PEL
	2	 0.0	 0.0	 3	   0.000000	 102.476900	   0.000000; % NG
	2	 0.0	 0.0	 3	   0.000000	  18.523867	   0.000000; % COW
	2	 0.0	 0.0	 3	   0.000000	   5.901389	   0.000000; % NG
	2	 0.0	 0.0	 3	   0.000000	  51.452745	   0.000000; % COW
	2	 0.0	 0.0	 3	   0.000000	  22.105878	   0.000000; % NG
	2	 0.0	 0.0	 3	   0.000000	 109.945515	   0.000000; % PEL
	2	 0.0	 0.0	 3	   0.000000	  95.652767	   0.000000; % NG
	2	 0.0	 0.0	 3	   0.000000	  25.249984	   0.000000; % NG
	2	 0.0	 0.0	 3	   0.000000	  25.431253	   0.000000; % NG
	2	 0.0	 0.0	 3	   0.000000	  40.295404	   0.000000; % NG
	2	 0.0	 0.0	 3	   0.000000	  37.006516	   0.000000; % COW
	2	 0.0	 0.0	 3	   0.000000	  28.409357	   0.000000; % PEL
	2	 0.0	 0.0	 3	   0.000000	  51.018648	   0.000000; % NG
	2	 0.0	 0.0	 3	   0.000000	 103.243210	   0.000000; % PEL
	2	 0.0	 0.0	 3	   0.000000	 106.556737	   0.000000; % PEL
	2	 0.0	 0.0	 3	   0.000000	  33.299717	   0.000000; % PEL
	2	 0.0	 0.0	 3	   0.000000	 101.086629	   0.000000; % NG
	2	 0.0	 0.0	 3	   0.000000	  32.433747	   0.000000; % PEL
	2	 0.0	 0.0	 3	   0.000000	  26.309050	   0.000000; % NG
	2	 0.0	 0.0	 3	   0.000000	  38.102978	   0.000000; % NG
	2	 0.0	 0.0	 3	   0.000000	 129.975635	   0.000000; % NG
	2	 0.0	 0.0	 3	   0.000000	 118.870177	   0.000000; % PEL
	2	 0.0	 0.0	 3	   0.000000	 119.611236	   0.000000; % NG
	2	 0.0	 0.0	 3	   0.000000	  37.369756	   0.000000; % NG
	2	 0.0	 0.0	 3	   0.000000	  37.143663	   0.000000; % NG
	2	 0.0	 0.0	 3	   0.000000	  29.147531	   0.000000; % NG
	2	 0.0	 0.0	 3	   0.000000	  10.847489	   0.000000; % PEL
	2	 0.0	 0.0	 3	   0.000000	  43.567399	   0.000000; % COW
	2	 0.0	 0.0	 3	   0.000000	  96.878349	   0.000000; % NG
	2	 0.0	 0.0	 3	   0.000000	  50.230074	   0.000000; % PEL
	2	 0.0	 0.0	 3	   0.000000	  19.708617	   0.000000; % NG
	2	 0.0	 0.0	 3	   0.000000	  32.465125	   0.000000; % NG
	2	 0.0	 0.0	 3	   0.000000	  37.248123	   0.000000; % COW
	2	 0.0	 0.0	 3	   0.000000	  57.897546	   0.000000; % COW
	2	 0.0	 0.0	 3	   0.000000	  38.548351	   0.000000; % COW
	2	 0.0	 0.0	 3	   0.000000	  25.674323	   0.000000; % NG
	2	 0.0	 0.0	 3	   0.000000	 105.602685	   0.000000; % PEL
	2	 0.0	 0.0	 3	   0.000000	  36.908456	   0.000000; % PEL
	2	 0.0	 0.0	 3	   0.000000	  26.350641	   0.000000; % NG
	2	 0.0	 0.0	 3	   0.000000	  32.759528	   0.000000; % NG
	2	 0.0	 0.0	 3	   0.000000	  35.125286	   0.000000; % NG
	2	 0.0	 0.0	 3	   0.000000	 112.903501	   0.000000; % PEL
	2	 0.0	 0.0	 3	   0.000000	  35.780028	   0.000000; % PEL
	2	 0.0	 0.0	 3	   0.000000	  34.509318	   0.000000; % COW
	2	 0.0	 0.0	 3	   0.000000	 104.643889	   0.000000; % NG
	2	 0.0	 0.0	 3	   0.000000	  19.072458	   0.000000; % NG
	2	 0.0	 0.0	 3	   0.000000	  20.551347	   0.000000; % NG
	2	 0.0	 0.0	 3	   0.000000	 109.899886	   0.000000; % NG
	2	 0.0	 0.0	 3	   0.000000	 117.575694	   0.000000; % NG
	2	 0.0	 0.0	 3	   0.000000	 108.391758	   0.000000; % PEL
	2	 0.0	 0.0	 3	   0.000000	 110.287454	   0.000000; % PEL
	2	 0.0	 0.0	 3	   0.000000	 116.402421	   0.000000; % PEL
	2	 0.0	 0.0	 3	   0.000000	  32.281677	   0.000000; % PEL
	2	 0.0	 0.0	 3	   0.000000	  24.936336	   0.000000; % PEL
	2	 0.0	 0.0	 3	   0.000000	  34.627875	   0.000000; % COW
	2	 0.0	 0.0	 3	   0.000000	  29.079634	   0.000000; % NG
	2	 0.0	 0.0	 3	   0.000000	 114.987747	   0.000000; % NG
	2	 0.0	 0.0	 3	   0.000000	   0.000000	   0.000000; % SYNC
	2	 0.0	 0.0	 3	   0.000000	   0.000000	   0.000000; % SYNC
	2	 0.0	 0.0	 3	   0.000000	  46.044674	   0.000000; % NG
	2	 0.0	 0.0	 3	   0.000000	  34.619523	   0.000000; % NG
	2	 0.0	 0.0	 3	   0.000000	 115.015285	   0.000000; % PEL
	2	 0.0	 0.0	 3	   0.000000	  45.023384	   0.000000; % NG
	2	 0.0	 0.0	 3	   0.000000	  57.259267	   0.000000; % NG
	2	 0.0	 0.0	 3	   0.000000	  26.528770	   0.000000; % NG
	2	 0.0	 0.0	 3	   0.000000	  25.436087	   0.000000; % NG
...
];

%% branch data
%	fbus	tbus	r	x	b	rateA	rateB	rateC	ratio	angle	status	angmin	angmax
mpc.branch = [
	639	 1	 0.005799	 0.010615	 0.0075	 2441.0	 2441.0	 2441.0	 0.0	 0.0	 1	 -30.0	 30.0;
	909	 2	 0.002607	 0.017462	 0.0324	 540.0	 540.0	 540.0	 0.0	 0.0	 1	 -30.0	 30.0;
	2575	 3	 2.1e-05	 0.000125	 0.1386	 737.0	 737.0	 737.0	 0.0	 0.0	 1	 -30.0	 30.0;
	875	 3	 0.000145	 0.001877	 0.0635	 2487.0	 2487.0	 2487.0	 0.0	 0.0	 1	 -30.0	 30.0;
	1710	 3	 0.000319	 0.003234	 0.0838	 1841.0	 1841.0	 1841.0	 0.0	 0.0	 1	 -30.0	 30.0;
	46	 3	 2.1e-05	 0.000125	 0.1386	 737.0	 737.0	 737.0	 0.0	 0.0	 1	 -30.0	 30.0;
	1073	 4	 0.037541	 0.100529	 0.0011	 284.0	 284.0	 284.0	 0.0	 0.0	 1	 -30.0	 30.0;
	1533	 4	 0.090199	 0.211388	 0.0023	 133.0	 133.0	 133.0	 0.0	 0.0	 1	 -30.0	 30.0;
	1658	 4	 0.09801	 0.267574	 0.0	 107.0	 107.0	 107.0	 0.0	 0.0	 1	 -30.0	 30.0;
	1370	 5	 0.009383	 0.019753	 0.0	 1194.0	 1194.0	 1194.0	 0.0	 0.0	 1	 -30.0	 30.0;
	1370	 6	 0.001975	 0.004444	 0.0	 5369.0	 5369.0	 5369.0	 0.0	 0.0	 1	 -30.0	 30.0;
	199	 7	 0.006163	 0.041067	 0.0759	 446.0	 446.0	 446.0	 0.0	 0.0	 1	 -30.0	 30.0;
	880	 7	 0.000652	 0.004369	 0.0081	 558.0	 558.0	 558.0	 0.0	 0.0	 1	 -30.0	 30.0;
	1061	 8	 0.067019	 0.137566	 0.0037	 193.0	 193.0	 193.0	 0.0	 0.0	 1	 -30.0	 30.0;
	1223	 8	 0.032754	 0.088939	 0.0039	 312.0	 312.0	 312.0	 0.0	 0.0	 1	 -30.0	 30.0;
	1223	 8	 0.030184	 0.080096	 0.0053	 345.0	 345.0	 345.0	 0.0	 0.0	 1	 -30.0	 30.0;
	1371	 10	 0.009733	 0.034089	 0.0185	 944.0	 944.0	 944.0	 0.0	 0.0	 1	 -30.0	 30.0;
	147	 11	 0.000277	 0.002015	 0.003	 288.0	 288.0	 288.0	 0.0	 0.0	 1	 -30.0	 30.0;
	387	 2571	 0.00881	 0.033995	 0.0607	 289.0	 289.0	 289.0	 0.0	 0.0	 1	 -30.0	 30.0;
	437	 2571	 0.004642	 0.019832	 0.0354	 255.0	 255.0	 255.0	 0.0	 0.0	 1	 -30.0	 30.0;
	955	 11	 0.008861	 0.03506	 0.0623	 288.0	 288.0	 288.0	 0.0	 0.0	 1	 -30.0	 30.0;
	991	 11	 0.006993	 0.032869	 0.0557	 255.0	 255.0	 255.0	 0.0	 0.0	 1	 -30.0	 30.0;
	1774	 2571	 0.002173	 0.008731	 0.0152	 3441.0	 3441.0	 3441.0	 0.0	 0.0	 1	 -30.0	 30.0;
	1817	 11	 0.00077	 0.003121	 0.0051	 9629.0	 9629.0	 9629.0	 0.0	 0.0	 1	 -30.0	 30.0;
	2092	 2571	 0.004109	 0.016138	 0.0284	 288.0	 288.0	 288.0	 0.0	 0.0	 1	 -30.0	 30.0;
	2591	 12	 8.3e-05	 0.000907	 0.0202	 1034.0	 1034.0	 1034.0	 0.0	 0.0	 1	 -30.0	 30.0;
	419	 12	 0.000552	 0.006726	 0.0939	 1786.0	 1786.0	 1786.0	 0.0	 0.0	 1	 -30.0	 30.0;
	808	 12	 0.000512	 0.008012	 0.2455	 2462.0	 2462.0	 2462.0	 0.0	 0.0	 1	 -30.0	 30.0;
	1158	 12	 0.001107	 0.00918	 0.1906	 1644.0	 1644.0	 1644.0	 0.0	 0.0	 1	 -30.0	 30.0;
	148	 12	 6.2e-05	 0.000741	 0.0173	 1095.0	 1095.0	 1095.0	 0.0	 0.0	 1	 -30.0	 30.0;
	808	 12	 0.000512	 0.008019	 0.2455	 2462.0	 2462.0	 2462.0	 0.0	 0.0	 1	 -30.0	 30.0;
	808	 12	 0.001153	 0.013123	 0.1841	 1433.0	 1433.0	 1433.0	 0.0	 0.0	 1	 -30.0	 30.0;
	167	 13	 0.000158	 0.000672	 0.0719	 331.0	 331.0	 331.0	 0.0	 0.0	 1	 -30.0	 30.0;
	1463	 13	 4.5e-05	 8.9e-05	 0.002	 268.0	 268.0	 268.0	 0.0	 0.0	 1	 -30.0	 30.0;
	820	 14	 0.033258	 0.090955	 0.001	 305.0	 305.0	 305.0	 0.0	 0.0	 1	 -30.0	 30.0;
	465	 15	 0.071303	 0.180902	 0.0021	 152.0	 152.0	 152.0	 0.0	 0.0	 1	 -30.0	 30.0;
	878	 15	 0.071554	 0.18191	 0.0021	 152.0	 152.0	 152.0	 0.0	 0.0	 1	 -30.0	 30.0;
	2664	 16	 0.00478	 0.028622	 0.0547	 455.0	 455.0	 455.0	 0.0	 0.0	 1	 -30.0	 30.0;
	451	 16	 0.00478	 0.028583	 0.0547	 455.0	 455.0	 455.0	 0.0	 0.0	 1	 -30.0	 30.0;
	151	 17	 0.000257	 0.000514	 0.0294	 53862.0	 53862.0	 53862.0	 0.0	 0.0	 1	 -30.0	 30.0;
	987	 18	 0.000257	 0.002153	 0.2147	 452.0	 452.0	 452.0	 0.0	 0.0	 1	 -30.0	 30.0;
	1264	 18	 0.000277	 0.000869	 0.0931	 481.0	 481.0	 481.0	 0.0	 0.0	 1	 -30.0	 30.0;
	1903	 19	 0.000756	 0.00252	 0.0	 11716.0	 11716.0	 11716.0	 0.0	 0.0	 1	 -30.0	 30.0;
	1247	 20	 0.000237	 0.00083	 0.1863	 268.0	 268.0	 268.0	 0.0	 0.0	 1	 -30.0	 30.0;
	1301	 20	 0.000178	 0.000612	 0.1377	 268.0	 268.0	 268.0	 0.0	 0.0	 1	 -30.0	 30.0;
	59	 21	 0.002568	 0.011753	 0.0203	 424.0	 424.0	 424.0	 0.0	 0.0	 1	 -30.0	 30.0;
	1908	 21	 0.002568	 0.011615	 0.0228	 290.0	 290.0	 290.0	 0.0	 0.0	 1	 -30.0	 30.0;
	591	 22	 0.102293	 0.226757	 0.0025	 122.0	 122.0	 122.0	 0.0	 0.0	 1	 -30.0	 30.0;
	855	 22	 0.177551	 0.405291	 0.0046	 68.0	 68.0	 68.0	 0.0	 0.0	 1	 -30.0	 30.0;
	1199	 22	 0.088264	 0.161566	 0.0017	 163.0	 163.0	 163.0	 0.0	 0.0	 1	 -30.0	 30.0;
	820	 23	 0.043336	 0.11867	 0.001	 234.0	 234.0	 234.0	 0.0	 0.0	 1	 -30.0	 30.0;
	1059	 23	 0.067775	 0.139834	 0.001	 191.0	 191.0	 191.0	 0.0	 0.0	 1	 -30.0	 30.0;
	1691	 23	 0.047367	 0.16125	 0.0021	 177.0	 177.0	 177.0	 0.0	 0.0	 1	 -30.0	 30.0;
	1922	 23	 0.004031	 0.016629	 0.001	 1726.0	 1726.0	 1726.0	 0.0	 0.0	 1	 -30.0	 30.0;
	1377	 24	 9.9e-05	 0.00077	 0.078	 379.0	 379.0	 379.0	 0.0	 0.0	 1	 -30.0	 30.0;
	1377	 2573	 9.9e-05	 0.00077	 0.077	 379.0	 379.0	 379.0	 0.0	 0.0	 1	 -30.0	 30.0;
	1908	 25	 0.000514	 0.003437	 0.0061	 290.0	 290.0	 290.0	 0.0	 0.0	 1	 -30.0	 30.0;
	1914	 25	 0.005476	 0.036879	 0.1255	 522.0	 522.0	 522.0	 0.0	 0.0	 1	 -30.0	 30.0;
	59	 25	 0.000514	 0.003457	 0.0061	 418.0	 418.0	 418.0	 0.0	 0.0	 1	 -30.0	 30.0;
	1138	 26	 0.003477	 0.01118	 0.0187	 304.0	 304.0	 304.0	 0.0	 0.0	 1	 -30.0	 30.0;
	1409	 26	 0.000612	 0.003121	 0.0152	 270.0	 270.0	 270.0	 0.0	 0.0	 1	 -30.0	 30.0;
	2755	 27	 0.013857	 0.035525	 0.0004	 775.0	 775.0	 775.0	 0.0	 0.0	 1	 -30.0	 30.0;
	1514	 28	 2.4e-05	 0.000144	 0.0213	 701.0	 701.0	 701.0	 0.0	 0.0	 1	 -30.0	 30.0;
	1514	 2574	 7.1e-05	 0.000162	 0.0162	 251.0	 251.0	 251.0	 0.0	 0.0	 1	 -30.0	 30.0;
	249	 29	 0.068027	 0.173091	 0.002	 159.0	 159.0	 159.0	 0.0	 0.0	 1	 -30.0	 30.0;
	296	 29	 0.027211	 0.068783	 0.001	 400.0	 400.0	 400.0	 0.0	 0.0	 1	 -30.0	 30.0;
	776	 29	 0.03099	 0.202822	 0.002	 146.0	 146.0	 146.0	 0.0	 0.0	 1	 -30.0	 30.0;
	1274	 30	 0.000257	 0.001165	 0.002	 405.0	 405.0	 405.0	 0.0	 0.0	 1	 -30.0	 30.0;
	1906	 31	 0.047317	 0.131595	 0.0015	 215.0	 215.0	 215.0	 0.0	 0.0	 1	 -30.0	 30.0;
	2686	 32	 0.075838	 0.224742	 0.0027	 125.0	 125.0	 125.0	 0.0	 0.0	 1	 -30.0	 30.0;
	648	 32	 0.028471	 0.089695	 0.001	 314.0	 314.0	 314.0	 0.0	 0.0	 1	 -30.0	 30.0;
	1337	 32	 0.080373	 0.255732	 0.003	 111.0	 111.0	 111.0	 0.0	 0.0	 1	 -30.0	 30.0;
	2050	 32	 0.000252	 0.000504	 0.0	 52398.0	 52398.0	 52398.0	 0.0	 0.0	 1	 -30.0	 30.0;
	1907	 33	 0.000444	 0.001136	 0.0	 21404.0	 21404.0	 21404.0	 0.0	 0.0	 1	 -30.0	 30.0;
	1370	 34	 0.057284	 0.130864	 0.0	 183.0	 183.0	 183.0	 0.0	 0.0	 1	 -30.0	 30.0;
	242	 35	 0.054749	 0.157445	 0.0027	 178.0	 178.0	 178.0	 0.0	 0.0	 1	 -30.0	 30.0;
	1507	 35	 0.038549	 0.103049	 0.0012	 269.0	 269.0	 269.0	 0.0	 0.0	 1	 -30.0	 30.0;
	2117	 35	 0.012598	 0.052406	 0.0006	 548.0	 548.0	 548.0	 0.0	 0.0	 1	 -30.0	 30.0;
	800	 36	 0.006914	 0.020741	 0.0	 1195.0	 1195.0	 1195.0	 0.0	 0.0	 1	 -30.0	 30.0;
	712	 37	 0.032124	 0.082892	 0.003	 333.0	 333.0	 333.0	 0.0	 0.0	 1	 -30.0	 30.0;
	1655	 37	 0.025573	 0.09869	 0.0012	 290.0	 290.0	 290.0	 0.0	 0.0	 1	 -30.0	 30.0;
	637	 39	 0.005709	 0.037926	 0.0688	 492.0	 492.0	 492.0	 0.0	 0.0	 1	 -30.0	 30.0;
	2032	 39	 0.001758	 0.011654	 0.0208	 492.0	 492.0	 492.0	 0.0	 0.0	 1	 -30.0	 30.0;
	2585	 40	 0.001383	 0.009462	 0.0172	 463.0	 463.0	 463.0	 0.0	 0.0	 1	 -30.0	 30.0;
	593	 40	 0.00156	 0.006933	 0.0121	 432.0	 432.0	 432.0	 0.0	 0.0	 1	 -30.0	 30.0;
	788	 40	 0.006376	 0.028733	 0.0506	 432.0	 432.0	 432.0	 0.0	 0.0	 1	 -30.0	 30.0;
	1291	 40	 0.00158	 0.010627	 0.0192	 481.0	 481.0	 481.0	 0.0	 0.0	 1	 -30.0	 30.0;
	1108	 41	 0.001086	 0.003536	 0.3766	 506.0	 506.0	 506.0	 0.0	 0.0	 1	 -30.0	 30.0;
	1108	 41	 0.001086	 0.003536	 0.3766	 506.0	 506.0	 506.0	 0.0	 0.0	 1	 -30.0	 30.0;
	235	 42	 0.04059	 0.110708	 0.0013	 251.0	 251.0	 251.0	 0.0	 0.0	 1	 -30.0	 30.0;
	248	 42	 0.073646	 0.225598	 0.0087	 125.0	 125.0	 125.0	 0.0	 0.0	 1	 -30.0	 30.0;
	285	 42	 0.02066	 0.088687	 0.0021	 325.0	 325.0	 325.0	 0.0	 0.0	 1	 -30.0	 30.0;
	1933	 42	 0.019904	 0.08516	 0.001	 338.0	 338.0	 338.0	 0.0	 0.0	 1	 -30.0	 30.0;
	1935	 42	 0.014361	 0.068027	 0.0035	 425.0	 425.0	 425.0	 0.0	 0.0	 1	 -30.0	 30.0;
	1770	 42	 0.059209	 0.150164	 0.0021	 183.0	 183.0	 183.0	 0.0	 0.0	 1	 -30.0	 30.0;
	183	 43	 0.004741	 0.020385	 0.0334	 1479.0	 1479.0	 1479.0	 0.0	 0.0	 1	 -30.0	 30.0;
	2006	 43	 0.009027	 0.048869	 0.084	 351.0	 351.0	 351.0	 0.0	 0.0	 1	 -30.0	 30.0;
	2036	 43	 0.003516	 0.016257	 0.0273	 311.0	 311.0	 311.0	 0.0	 0.0	 1	 -30.0	 30.0;
	265	 44	 0.059461	 0.163265	 0.0018	 170.0	 170.0	 170.0	 0.0	 0.0	 1	 -30.0	 30.0;
	1652	 44	 0.146384	 0.373394	 0.0051	 74.0	 74.0	 74.0	 0.0	 0.0	 1	 -30.0	 30.0;
	389	 45	 0.000514	 0.003417	 0.0278	 452.0	 452.0	 452.0	 0.0	 0.0	 1	 -30.0	 30.0;
	408	 45	 0.001084	 0.007198	 0.0132	 448.0	 448.0	 448.0	 0.0	 0.0	 1	 -30.0	 30.0;
	1955	 45	 0.000523	 0.002436	 0.0167	 348.0	 348.0	 348.0	 0.0	 0.0	 1	 -30.0	 30.0;
	389	 45	 0.000514	 0.003457	 0.0203	 356.0	 356.0	 356.0	 0.0	 0.0	 1	 -30.0	 30.0;
	408	 45	 0.001086	 0.007249	 0.0132	 540.0	 540.0	 540.0	 0.0	 0.0	 1	 -30.0	 30.0;
	1954	 45	 0.000553	 0.002469	 0.0157	 405.0	 405.0	 405.0	 0.0	 0.0	 1	 -30.0	 30.0;
	408	 45	 0.001086	 0.007269	 0.0132	 540.0	 540.0	 540.0	 0.0	 0.0	 1	 -30.0	 30.0;
	380	 47	 0.016125	 0.068279	 0.0081	 426.0	 426.0	 426.0	 0.0	 0.0	 1	 -30.0	 30.0;
	1699	 47	 0.059209	 0.150416	 0.0021	 184.0	 184.0	 184.0	 0.0	 0.0	 1	 -30.0	 30.0;
	380	 47	 0.016125	 0.068279	 0.0081	 426.0	 426.0	 426.0	 0.0	 0.0	 1	 -30.0	 30.0;
	1610	 48	 0.102293	 0.245906	 0.0027	 112.0	 112.0	 112.0	 0.0	 0.0	 1	 -30.0	 30.0;
	2120	 48	 0.036533	 0.088435	 0.001	 312.0	 312.0	 312.0	 0.0	 0.0	 1	 -30.0	 30.0;
	1006	 49	 0.019148	 0.081381	 0.0012	 354.0	 354.0	 354.0	 0.0	 0.0	 1	 -30.0	 30.0;
	1585	 49	 0.02318	 0.04258	 0.0006	 612.0	 612.0	 612.0	 0.0	 0.0	 1	 -30.0	 30.0;
	1972	 49	 0.002268	 0.022424	 0.0002	 1314.0	 1314.0	 1314.0	 0.0	 0.0	 1	 -30.0	 30.0;
	2121	 2576	 0.012094	 0.030486	 0.0004	 901.0	 901.0	 901.0	 0.0	 0.0	 1	 -30.0	 30.0;
	1006	 2576	 0.03351	 0.088435	 0.001	 313.0	 313.0	 313.0	 0.0	 0.0	 1	 -30.0	 30.0;
	1971	 2576	 0.00252	 0.02066	 0.0002	 1419.0	 1419.0	 1419.0	 0.0	 0.0	 1	 -30.0	 30.0;
	1103	 50	 0.001837	 0.011694	 0.0759	 467.0	 467.0	 467.0	 0.0	 0.0	 1	 -30.0	 30.0;
	1256	 50	 0.001067	 0.007131	 0.0132	 413.0	 413.0	 413.0	 0.0	 0.0	 1	 -30.0	 30.0;
	1709	 50	 0.001284	 0.008593	 0.0152	 541.0	 541.0	 541.0	 0.0	 0.0	 1	 -30.0	 30.0;
	2895	 50	 0.001284	 0.008593	 0.0162	 541.0	 541.0	 541.0	 0.0	 0.0	 1	 -30.0	 30.0;
	2895	 50	 0.001284	 0.008533	 0.0162	 541.0	 541.0	 541.0	 0.0	 0.0	 1	 -30.0	 30.0;
	2621	 51	 0.000494	 0.000928	 0.0699	 29203.0	 29203.0	 29203.0	 0.0	 0.0	 1	 -30.0	 30.0;
	434	 51	 0.000184	 0.00159	 0.1661	 422.0	 422.0	 422.0	 0.0	 0.0	 1	 -30.0	 30.0;
	1497	 51	 0.000198	 0.001711	 0.1711	 385.0	 385.0	 385.0	 0.0	 0.0	 1	 -30.0	 30.0;
	1522	 51	 0.000751	 0.003358	 0.1534	 385.0	 385.0	 385.0	 0.0	 0.0	 1	 -30.0	 30.0;
	450	 52	 0.000178	 0.001047	 0.1499	 452.0	 452.0	 452.0	 0.0	 0.0	 1	 -30.0	 30.0;
	651	 2942	 0.000119	 0.000474	 0.0688	 452.0	 452.0	 452.0	 0.0	 0.0	 1	 -30.0	 30.0;
	1247	 52	 0.000316	 0.002232	 0.2774	 452.0	 452.0	 452.0	 0.0	 0.0	 1	 -30.0	 30.0;
	2603	 53	 0.047115	 0.108088	 0.0031	 251.0	 251.0	 251.0	 0.0	 0.0	 1	 -30.0	 30.0;
	1126	 53	 0.036281	 0.154195	 0.0037	 187.0	 187.0	 187.0	 0.0	 0.0	 1	 -30.0	 30.0;
	1686	 54	 0.037227	 0.106836	 0.0328	 270.0	 270.0	 270.0	 0.0	 0.0	 1	 -30.0	 30.0;
	1929	 54	 0.006089	 0.020756	 0.0067	 1408.0	 1408.0	 1408.0	 0.0	 0.0	 1	 -30.0	 30.0;
	1109	 55	 0.000729	 0.005118	 0.0933	 389.0	 389.0	 389.0	 0.0	 0.0	 1	 -30.0	 30.0;
	1109	 55	 0.000755	 0.005235	 0.0909	 419.0	 419.0	 419.0	 0.0	 0.0	 1	 -30.0	 30.0;
	321	 56	 0.001787	 0.01946	 0.4214	 1579.0	 1579.0	 1579.0	 0.0	 0.0	 1	 -30.0	 30.0;
	638	 57	 0.001719	 0.00877	 0.0157	 321.0	 321.0	 321.0	 0.0	 0.0	 1	 -30.0	 30.0;
	1538	 57	 0.009165	 0.04318	 0.077	 321.0	 321.0	 321.0	 0.0	 0.0	 1	 -30.0	 30.0;
	190	 59	 0.004879	 0.032454	 0.0602	 487.0	 487.0	 487.0	 0.0	 0.0	 1	 -30.0	 30.0;
	258	 59	 0.006341	 0.042746	 0.0785	 418.0	 418.0	 418.0	 0.0	 0.0	 1	 -30.0	 30.0;
	284	 59	 0.006914	 0.031249	 0.0547	 327.0	 327.0	 327.0	 0.0	 0.0	 1	 -30.0	 30.0;
	396	 60	 0.000582	 0.007652	 0.2643	 2487.0	 2487.0	 2487.0	 0.0	 0.0	 1	 -30.0	 30.0;
	1001	 60	 0.001648	 0.021634	 0.748	 1470.0	 1470.0	 1470.0	 0.0	 0.0	 1	 -30.0	 30.0;
	1240	 60	 0.000838	 0.014301	 0.5198	 2229.0	 2229.0	 2229.0	 0.0	 0.0	 1	 -30.0	 30.0;
	2897	 60	 0.001163	 0.015312	 0.5285	 2077.0	 2077.0	 2077.0	 0.0	 0.0	 1	 -30.0	 30.0;
	396	 60	 0.000575	 0.007576	 0.2614	 2487.0	 2487.0	 2487.0	 0.0	 0.0	 1	 -30.0	 30.0;
	1001	 60	 0.001646	 0.021633	 0.7479	 1470.0	 1470.0	 1470.0	 0.0	 0.0	 1	 -30.0	 30.0;
	1240	 60	 0.000838	 0.014287	 0.5198	 2231.0	 2231.0	 2231.0	 0.0	 0.0	 1	 -30.0	 30.0;
	1723	 60	 0.00117	 0.015339	 0.5285	 2074.0	 2074.0	 2074.0	 0.0	 0.0	 1	 -30.0	 30.0;
	2897	 60	 0.001821	 0.017874	 0.4318	 1382.0	 1382.0	 1382.0	 0.0	 0.0	 1	 -30.0	 30.0;
	182	 61	 0.003023	 0.01159	 0.0002	 2466.0	 2466.0	 2466.0	 0.0	 0.0	 1	 -30.0	 30.0;
	63	 62	 0.011163	 0.020434	 0.0002	 1269.0	 1269.0	 1269.0	 0.0	 0.0	 1	 -30.0	 30.0;
	1589	 63	 0.070043	 0.190728	 0.0021	 146.0	 146.0	 146.0	 0.0	 0.0	 1	 -30.0	 30.0;
	1684	 2577	 0.110103	 0.294533	 0.004	 96.0	 96.0	 96.0	 0.0	 0.0	 1	 -30.0	 30.0;
	1755	 63	 0.034014	 0.145629	 0.0018	 198.0	 198.0	 198.0	 0.0	 0.0	 1	 -30.0	 30.0;
	65	 2577	 0.000171	 0.000313	 0.0003	 82782.0	 82782.0	 82782.0	 0.0	 0.0	 1	 -30.0	 30.0;
	738	 64	 0.000672	 0.003477	 0.0365	 254.0	 254.0	 254.0	 0.0	 0.0	 1	 -30.0	 30.0;
	252	 66	 0.138123	 0.332	 0.001	 73.0	 73.0	 73.0	 0.0	 0.0	 1	 -30.0	 30.0;
	1773	 2578	 0.000988	 0.003457	 0.0	 7261.0	 7261.0	 7261.0	 0.0	 0.0	 1	 -30.0	 30.0;
	2145	 66	 0.008395	 0.02321	 0.0	 1058.0	 1058.0	 1058.0	 0.0	 0.0	 1	 -30.0	 30.0;
	1894	 67	 0.000632	 0.004188	 0.0081	 471.0	 471.0	 471.0	 0.0	 0.0	 1	 -30.0	 30.0;
	1894	 2579	 0.000612	 0.004148	 0.0071	 471.0	 471.0	 471.0	 0.0	 0.0	 1	 -30.0	 30.0;
	1362	 69	 0.000672	 0.004405	 0.0081	 541.0	 541.0	 541.0	 0.0	 0.0	 1	 -30.0	 30.0;
	2090	 69	 0.000968	 0.004602	 0.0081	 304.0	 304.0	 304.0	 0.0	 0.0	 1	 -30.0	 30.0;
	1362	 69	 0.000632	 0.004444	 0.0081	 440.0	 440.0	 440.0	 0.0	 0.0	 1	 -30.0	 30.0;
	2095	 70	 0.001975	 0.013215	 0.0243	 541.0	 541.0	 541.0	 0.0	 0.0	 1	 -30.0	 30.0;
	2096	 70	 0.001956	 0.013037	 0.0243	 2348.0	 2348.0	 2348.0	 0.0	 0.0	 1	 -30.0	 30.0;
	1761	 71	 0.002933	 0.010267	 0.0032	 3007.0	 3007.0	 3007.0	 0.0	 0.0	 1	 -30.0	 30.0;
	1911	 71	 0.0028	 0.007511	 0.0022	 4006.0	 4006.0	 4006.0	 0.0	 0.0	 1	 -30.0	 30.0;
	74	 2580	 2e-05	 0.000198	 0.0121	 261.0	 261.0	 261.0	 0.0	 0.0	 1	 -30.0	 30.0;
	74	 72	 2e-05	 0.000198	 0.0142	 261.0	 261.0	 261.0	 0.0	 0.0	 1	 -30.0	 30.0;
	2653	 74	 0.002037	 0.010904	 0.0187	 352.0	 352.0	 352.0	 0.0	 0.0	 1	 -30.0	 30.0;
	423	 74	 0.000415	 0.002015	 0.1266	 428.0	 428.0	 428.0	 0.0	 0.0	 1	 -30.0	 30.0;
	483	 74	 0.000395	 0.00156	 0.1893	 426.0	 426.0	 426.0	 0.0	 0.0	 1	 -30.0	 30.0;
	791	 74	 4e-05	 0.000178	 0.0152	 169660.0	 169660.0	 169660.0	 0.0	 0.0	 1	 -30.0	 30.0;
	2792	 74	 0.001323	 0.012444	 0.0678	 935.0	 935.0	 935.0	 0.0	 0.0	 1	 -30.0	 30.0;
	1631	 74	 0.000454	 0.002133	 0.2511	 268.0	 268.0	 268.0	 0.0	 0.0	 1	 -30.0	 30.0;
	1855	 74	 0.000119	 0.000691	 0.1002	 387.0	 387.0	 387.0	 0.0	 0.0	 1	 -30.0	 30.0;
	1886	 74	 0.00083	 0.005175	 0.0203	 323.0	 323.0	 323.0	 0.0	 0.0	 1	 -30.0	 30.0;
	2792	 74	 0.001314	 0.012115	 0.0673	 943.0	 943.0	 943.0	 0.0	 0.0	 1	 -30.0	 30.0;
	2926	 74	 5.9e-05	 0.000217	 0.0496	 323.0	 323.0	 323.0	 0.0	 0.0	 1	 -30.0	 30.0;
	1853	 74	 5.9e-05	 0.000217	 0.0466	 323.0	 323.0	 323.0	 0.0	 0.0	 1	 -30.0	 30.0;
	1640	 75	 0.000854	 0.001563	 0.0007	 16578.0	 16578.0	 16578.0	 0.0	 0.0	 1	 -30.0	 30.0;
	1909	 76	 0.000494	 0.000988	 0.0	 23633.0	 23633.0	 23633.0	 0.0	 0.0	 1	 -30.0	 30.0;
	124	 77	 0.062232	 0.138574	 0.0015	 202.0	 202.0	 202.0	 0.0	 0.0	 1	 -30.0	 30.0;
	1903	 77	 0.035525	 0.084782	 0.0009	 335.0	 335.0	 335.0	 0.0	 0.0	 1	 -30.0	 30.0;
	1520	 78	 0.000158	 0.000948	 0.002	 348.0	 348.0	 348.0	 0.0	 0.0	 1	 -30.0	 30.0;
...